# File generated by Flopy version 3.3.2 on 05/05/2022 at 16:49:43.
BEGIN options
  auxiliary  multiplier
  AUXMULTNAME  multiplier
  BOUNDNAMES
  SAVE_FLOWS
  TS6  FILEIN  mf6-tv_scenario-canal_leakage_rates-b-area_dist.ts
END options

BEGIN dimensions
  MAXBOUND  2298
END dimensions

BEGIN period  1
  1 5 9  leakb97       0.13394928  leakb97
  1 5 10  leakb94       0.02050034  leakb94
  1 5 10  leakb97       0.07509399  leakb97
  1 5 11  leakb94       0.02155036  leakb94
  1 5 12  leakb94       0.02120035  leakb94
  1 5 13  leakb94       0.01680028  leakb94
  1 6 9  leakb97       0.00127990  leakb97
  1 6 10  leakb94       0.00856681  leakb94
  1 6 10  leakb97       0.03223742  leakb97
  1 6 11  leakb94       0.01355023  leakb94
  1 6 11  leakb97       0.00673946  leakb97
  1 6 12  leakb94       0.03353389  leakb94
  1 6 12  leakb97  7.59939205E-04  leakb97
  1 6 13  leakb94       0.02431707  leakb94
  1 6 13  leakb97       0.00127990  leakb97
  1 6 14  leakb35       1.00000000  leakb35
  1 6 14  leakb94       0.01808363  leakb94
  1 7 9  leakb97       0.00137989  leakb97
  1 7 10  leakb97       0.02839773  leakb97
  1 7 11  leakb97       0.01011919  leakb97
  1 7 12  leakb94       0.00130002  leakb94
  1 7 12  leakb97       0.00879930  leakb97
  1 7 13  leakb94       0.00430007  leakb94
  1 7 13  leakb97       0.00875930  leakb97
  1 7 14  leakb94       0.01650028  leakb94
  1 7 14  leakb97       0.00499960  leakb97
  1 7 15  leakb94       0.01875031  leakb94
  1 7 15  leakb95       0.01437356  leakb95
  1 7 15  leakb97  3.99968003E-04  leakb97
  1 7 16  leakb94       0.20815347  leakb94
  1 7 16  leakb95       0.07131787  leakb95
  1 8 9  leakb97       0.02881769  leakb97
  1 8 10  leakb97       0.00871930  leakb97
  1 8 11  leakb97       0.01053916  leakb97
  1 8 12  leakb97       0.00899928  leakb97
  1 8 13  leakb97       0.00903928  leakb97
  1 8 14  leakb97       0.00895928  leakb97
  1 8 15  leakb94       0.00330006  leakb94
  1 8 15  leakb97       0.00795936  leakb97
  1 8 16  leakb94       0.02428374  leakb94
  1 8 16  leakb97       0.00187985  leakb97
  1 8 17  leakb94       0.04956749  leakb94
  1 9 9  leakb97       0.00977922  leakb97
  1 9 10  leakb97       0.00989921  leakb97
  1 9 11  leakb97       0.00947924  leakb97
  1 9 12  leakb97       0.00937925  leakb97
  1 9 13  leakb97       0.01087913  leakb97
  1 9 14  leakb97       0.01043916  leakb97
  1 9 15  leakb97       0.00887929  leakb97
  1 9 16  leakb94  5.00008333E-05  leakb94
  1 9 16  leakb97       0.00669946  leakb97
  1 9 17  leakb94       0.05466758  leakb94
  1 9 17  leakb97       0.00141989  leakb97
  1 9 18  leakb94       0.12675211  leakb94
  1 9 18  leakb95       0.01774823  leakb95
  1 10 8  leakb97       0.00651948  leakb97
  1 10 9  leakb97       0.03893689  leakb97
  1 10 9  leakb102  9.99900010E-05  leakb102
  1 10 10  leakb97       0.04545636  leakb97
  1 10 10  leakb102       0.00274973  leakb102
  1 10 11  leakb97       0.00661947  leakb97
  1 10 11  leakb102  8.49915008E-04  leakb102
  1 10 12  leakb97       0.00685945  leakb97
  1 10 13  leakb97       0.00799936  leakb97
  1 10 14  leakb97       0.00851932  leakb97
  1 10 15  leakb97       0.01157907  leakb97
  1 10 16  leakb97       0.01057915  leakb97
  1 10 17  leakb94  1.66669444E-05  leakb94
  1 10 17  leakb97       0.00563955  leakb97
  1 10 18  leakb94       0.05253421  leakb94
  1 10 18  leakb97       0.00357971  leakb97
  1 10 19  leakb94       0.20428674  leakb94
  1 10 19  leakb95       0.00427457  leakb95
  1 11 8  leakb97       0.02251820  leakb97
  1 11 9  leakb97       0.09233261  leakb97
  1 11 9  leakb102       0.00494951  leakb102
  1 11 10  leakb102       0.01294871  leakb102
  1 11 11  leakb97       0.00159987  leakb97
  1 11 11  leakb102       0.01164884  leakb102
  1 11 12  leakb97       0.00201984  leakb97
  1 11 12  leakb102       0.01109889  leakb102
  1 11 13  leakb97       0.00249980  leakb97
  1 11 13  leakb102       0.01134887  leakb102
  1 11 14  leakb97       0.00509959  leakb97
  1 11 14  leakb102       0.00909909  leakb102
  1 11 15  leakb97       0.00609951  leakb97
  1 11 15  leakb102       0.00369963  leakb102
  1 11 16  leakb97       0.00785937  leakb97
  1 11 16  leakb102  2.49975002E-04  leakb102
  1 11 17  leakb97       0.01001920  leakb97
  1 11 17  leakb102  1.49985001E-04  leakb102
  1 11 18  leakb94       0.00100002  leakb94
  1 11 18  leakb97       0.00875930  leakb97
  1 11 19  leakb94       0.02533376  leakb94
  1 11 19  leakb95       0.01562344  leakb95
  1 11 19  leakb97       0.00117991  leakb97
  1 11 20  leakb94       0.03110052  leakb94
  1 11 20  leakb95       0.04487051  leakb95
  1 11 21  leakb95       0.01832317  leakb95
  1 11 22  leakb95       0.01312369  leakb95
  1 12 8  leakb97       0.02015839  leakb97
  1 12 8  leakb102       0.00124988  leakb102
  1 12 9  leakb97       0.01917847  leakb97
  1 12 9  leakb102       0.01234877  leakb102
  1 12 10  leakb102       0.00924908  leakb102
  1 12 11  leakb102       0.00929907  leakb102
  1 12 12  leakb81       0.02650530  leakb81
  1 12 12  leakb102       0.01114889  leakb102
  1 12 13  leakb81       0.00270054  leakb81
  1 12 13  leakb102       0.00624938  leakb102
  1 12 14  leakb102       0.01219878  leakb102
  1 12 15  leakb102       0.01219878  leakb102
  1 12 16  leakb97       0.00243980  leakb97
  1 12 16  leakb102       0.01189881  leakb102
  1 12 17  leakb97       0.00595952  leakb97
  1 12 17  leakb102       0.00349965  leakb102
  1 12 18  leakb97       0.00999920  leakb97
  1 12 19  leakb95       0.01107389  leakb95
  1 12 19  leakb97       0.00753940  leakb97
  1 12 20  leakb95       0.02644736  leakb95
  1 12 21  leakb95       0.02297270  leakb95
  1 12 22  leakb95       0.00964904  leakb95
  1 12 23  leakb95       0.01839816  leakb95
  1 12 24  leakb95       0.02454755  leakb95
  1 13 8  leakb97       0.00195984  leakb97
  1 13 8  leakb102       0.00199980  leakb102
  1 13 9  leakb102       0.01159884  leakb102
  1 13 10  leakb102       0.00994901  leakb102
  1 13 11  leakb102       0.01139886  leakb102
  1 13 12  leakb81       0.01670334  leakb81
  1 13 12  leakb102       0.00929907  leakb102
  1 13 13  leakb81       0.00380076  leakb81
  1 13 13  leakb102  5.49945005E-04  leakb102
  1 13 14  leakb102  9.99900010E-04  leakb102
  1 13 15  leakb81  2.00040008E-04  leakb81
  1 13 15  leakb102       0.00829917  leakb102
  1 13 16  leakb97  2.39980802E-04  leakb97
  1 13 16  leakb102       0.01289871  leakb102
  1 13 17  leakb97       0.00439965  leakb97
  1 13 17  leakb102       0.00884912  leakb102
  1 13 18  leakb97       0.00515959  leakb97
  1 13 18  leakb102       0.00359964  leakb102
  1 13 19  leakb95       0.00597440  leakb95
  1 13 19  leakb97       0.00797936  leakb97
  1 13 19  leakb102  2.49975002E-04  leakb102
  1 13 20  leakb95       0.01782322  leakb95
  1 13 20  leakb97       0.00489961  leakb97
  1 13 21  leakb95       0.02697230  leakb95
  1 13 21  leakb97  5.59955204E-04  leakb97
  1 13 22  leakb95       0.02212279  leakb95
  1 13 23  leakb95       0.00882412  leakb95
  1 13 24  leakb95       0.00917408  leakb95
  1 13 25  leakb95       0.00902410  leakb95
  1 13 26  leakb95       0.01207379  leakb95
  1 13 27  leakb95       0.01212379  leakb95
  1 13 28  leakb95       0.03592141  leakb95
  1 13 34  leakb95       0.00432457  leakb95
  1 13 34  leakb102       0.00199980  leakb102
  1 14 8  leakb97       0.01011919  leakb97
  1 14 8  leakb102       0.00204980  leakb102
  1 14 9  leakb102       0.01029897  leakb102
  1 14 10  leakb102       0.00649935  leakb102
  1 14 11  leakb102       0.00779922  leakb102
  1 14 12  leakb81       0.02140428  leakb81
  1 14 12  leakb102       0.00909909  leakb102
  1 14 13  leakb81       0.00750150  leakb81
  1 14 13  leakb102  5.49945005E-04  leakb102
  1 14 15  leakb81       0.00470094  leakb81
  1 14 15  leakb102       0.00154985  leakb102
  1 14 16  leakb102       0.00879912  leakb102
  1 14 17  leakb81       0.00120024  leakb81
  1 14 17  leakb102       0.01329867  leakb102
  1 14 18  leakb102       0.01054895  leakb102
  1 14 19  leakb97       0.00195984  leakb97
  1 14 19  leakb102       0.01069893  leakb102
  1 14 20  leakb97       0.00551956  leakb97
  1 14 20  leakb102       0.00614939  leakb102
  1 14 21  leakb95       0.01304870  leakb95
  1 14 21  leakb96       0.01078086  leakb96
  1 14 21  leakb97       0.00587953  leakb97
  1 14 22  leakb95       0.01744826  leakb95
  1 14 22  leakb96       0.01120090  leakb96
  1 14 23  leakb95       0.01984802  leakb95
  1 14 24  leakb95       0.01022398  leakb95
  1 14 25  leakb95       0.01014899  leakb95
  1 14 26  leakb95       0.00812419  leakb95
  1 14 27  leakb95       0.00899910  leakb95
  1 14 28  leakb95       0.00939906  leakb95
  1 14 29  leakb95       0.03282172  leakb95
  1 14 30  leakb95       0.00809919  leakb95
  1 14 31  leakb95       0.00822418  leakb95
  1 14 32  leakb95       0.00882412  leakb95
  1 14 33  leakb95       0.00799920  leakb95
  1 14 33  leakb96       0.00000000  leakb96
  1 14 34  leakb95       0.01327367  leakb95
  1 14 34  leakb96       0.00236019  leakb96
  1 14 34  leakb102       0.02789721  leakb102
  1 14 35  leakb93       0.00154992  leakb93
  1 14 35  leakb101       0.00154992  leakb101
  1 14 35  leakb102       0.00499950  leakb102
  1 15 8  leakb97  4.39964803E-04  leakb97
  1 15 8  leakb102       0.00959904  leakb102
  1 15 9  leakb102       0.01029897  leakb102
  1 15 10  leakb102       0.01244876  leakb102
  1 15 11  leakb102       0.00369963  leakb102
  1 15 12  leakb81       0.02230446  leakb81
  1 15 12  leakb102       0.00344966  leakb102
  1 15 13  leakb81       0.00150030  leakb81
  1 15 16  leakb81  2.00040008E-04  leakb81
  1 15 16  leakb102       0.00124988  leakb102
  1 15 17  leakb81  1.00020004E-04  leakb81
  1 15 17  leakb102       0.00279972  leakb102
  1 15 18  leakb102       0.00704930  leakb102
  1 15 19  leakb102       0.00629937  leakb102
  1 15 20  leakb93  2.49987501E-04  leakb93
  1 15 20  leakb97  8.19934405E-04  leakb97
  1 15 20  leakb101  2.49987501E-04  leakb101
  1 15 20  leakb102       0.00884912  leakb102
  1 15 21  leakb96       0.03706297  leakb96
  1 15 21  leakb97       0.00443964  leakb97
  1 15 21  leakb102       0.00504950  leakb102
  1 15 22  leakb95       0.00334967  leakb95
  1 15 22  leakb96       0.03980318  leakb96
  1 15 23  leakb95       0.01134887  leakb95
  1 15 23  leakb96       0.01908153  leakb96
  1 15 24  leakb95       0.03127187  leakb95
  1 15 24  leakb96       0.00632051  leakb96
  1 15 25  leakb95       0.02144786  leakb95
  1 15 26  leakb95       0.01109889  leakb95
  1 15 27  leakb95       0.00917408  leakb95
  1 15 28  leakb95       0.00922408  leakb95
  1 15 29  leakb95       0.00859914  leakb95
  1 15 30  leakb95       0.00944906  leakb95
  1 15 31  leakb95       0.00944906  leakb95
  1 15 32  leakb95       0.00867413  leakb95
  1 15 32  leakb96  2.00016001E-05  leakb96
  1 15 33  leakb95       0.00469953  leakb95
  1 15 33  leakb96       0.00506040  leakb96
  1 15 33  leakb102       0.01439856  leakb102
  1 15 34  leakb95       0.00162484  leakb95
  1 15 34  leakb96       0.00110009  leakb96
  1 15 34  leakb102       0.03999600  leakb102
  1 15 35  leakb93       0.00419979  leakb93
  1 15 35  leakb101       0.00419979  leakb101
  1 15 35  leakb102       0.00594941  leakb102
  1 16 7  leakb25       0.00449955  leakb25
  1 16 7  leakb97       0.00327974  leakb97
  1 16 8  leakb25       0.00389961  leakb25
  1 16 8  leakb97  3.39972802E-04  leakb97
  1 16 8  leakb102       0.00959904  leakb102
  1 16 9  leakb25       0.00539946  leakb25
  1 16 9  leakb102       0.01139886  leakb102
  1 16 10  leakb81       0.01670334  leakb81
  1 16 10  leakb102       0.00519948  leakb102
  1 16 11  leakb81       0.04150830  leakb81
  1 16 11  leakb102       0.00654935  leakb102
  1 16 12  leakb81       0.05761152  leakb81
  1 16 12  leakb102       0.00824918  leakb102
  1 16 13  leakb81       0.00930186  leakb81
  1 16 13  leakb102  4.49955004E-04  leakb102
  1 16 18  leakb102  4.99950005E-05  leakb102
  1 16 19  leakb93       0.00199990  leakb93
  1 16 19  leakb101       0.00199990  leakb101
  1 16 19  leakb102  9.99900010E-05  leakb102
  1 16 20  leakb93       0.00169992  leakb93
  1 16 20  leakb101       0.00169992  leakb101
  1 16 20  leakb102  9.99900010E-05  leakb102
  1 16 21  leakb93       0.00194990  leakb93
  1 16 21  leakb96       0.00526042  leakb96
  1 16 21  leakb97       0.00243980  leakb97
  1 16 21  leakb101       0.00194990  leakb101
  1 16 21  leakb102       0.01984802  leakb102
  1 16 22  leakb96       0.02554204  leakb96
  1 16 22  leakb97       0.00307975  leakb97
  1 16 22  leakb102       0.00784922  leakb102
  1 16 23  leakb96       0.05014401  leakb96
  1 16 23  leakb97  5.59955204E-04  leakb97
  1 16 24  leakb95       0.01212379  leakb95
  1 16 24  leakb96       0.03054244  leakb96
  1 16 25  leakb95       0.02294771  leakb95
  1 16 25  leakb96       0.01212097  leakb96
  1 16 26  leakb95       0.02252275  leakb95
  1 16 26  leakb96       0.00970078  leakb96
  1 16 27  leakb95       0.01332367  leakb95
  1 16 27  leakb96       0.00502040  leakb96
  1 16 28  leakb95       0.01214879  leakb95
  1 16 29  leakb95       0.01872313  leakb95
  1 16 30  leakb95       0.02402260  leakb95
  1 16 31  leakb95       0.02262274  leakb95
  1 16 31  leakb96  4.80038403E-04  leakb96
  1 16 31  leakb97       0.00125990  leakb97
  1 16 32  leakb95       0.00652435  leakb95
  1 16 32  leakb96       0.00860069  leakb96
  1 16 32  leakb97  4.19966403E-04  leakb97
  1 16 33  leakb95  1.49985001E-04  leakb95
  1 16 33  leakb96       0.00932075  leakb96
  1 16 33  leakb102       0.04484552  leakb102
  1 16 34  leakb93       0.00529974  leakb93
  1 16 34  leakb101       0.00529974  leakb101
  1 16 34  leakb102       0.02704730  leakb102
  1 16 35  leakb93       0.00949953  leakb93
  1 16 35  leakb101       0.00949953  leakb101
  1 16 35  leakb102  6.49935006E-04  leakb102
  1 17 7  leakb25       0.00329967  leakb25
  1 17 7  leakb62       0.01070000  leakb62
  1 17 8  leakb25       0.02389761  leakb25
  1 17 8  leakb102       0.00809919  leakb102
  1 17 9  leakb25       0.01329867  leakb25
  1 17 9  leakb102       0.00724928  leakb102
  1 17 10  leakb81       0.00140028  leakb81
  1 17 10  leakb102       0.00229977  leakb102
  1 17 11  leakb81       0.00760152  leakb81
  1 17 11  leakb102  5.49945005E-04  leakb102
  1 17 12  leakb81       0.00620124  leakb81
  1 17 12  leakb102  7.49925007E-04  leakb102
  1 17 13  leakb81       0.01580316  leakb81
  1 17 13  leakb102  4.99950005E-05  leakb102
  1 17 17  leakb05  9.00000000E-04  leakb05
  1 17 18  leakb05       0.00320000  leakb05
  1 17 18  leakb93  3.99980001E-04  leakb93
  1 17 18  leakb101  3.99980001E-04  leakb101
  1 17 19  leakb05       0.00600000  leakb05
  1 17 19  leakb93       0.00794960  leakb93
  1 17 19  leakb101       0.00794960  leakb101
  1 17 20  leakb05       0.00570000  leakb05
  1 17 20  leakb93       0.01434928  leakb93
  1 17 20  leakb101       0.01434928  leakb101
  1 17 21  leakb93  1.99990000E-04  leakb93
  1 17 21  leakb101  1.99990000E-04  leakb101
  1 17 21  leakb102  3.49965003E-04  leakb102
  1 17 22  leakb93       0.00409980  leakb93
  1 17 22  leakb97  1.79985601E-04  leakb97
  1 17 22  leakb101       0.00409980  leakb101
  1 17 22  leakb102       0.01134887  leakb102
  1 17 23  leakb93       0.00509975  leakb93
  1 17 23  leakb96       0.01018081  leakb96
  1 17 23  leakb97       0.00275978  leakb97
  1 17 23  leakb101       0.00509975  leakb101
  1 17 23  leakb102       0.02734727  leakb102
  1 17 24  leakb96       0.03174254  leakb96
  1 17 24  leakb97       0.00397968  leakb97
  1 17 24  leakb102       0.00539946  leakb102
  1 17 25  leakb95       0.00559944  leakb95
  1 17 25  leakb96       0.03092247  leakb96
  1 17 25  leakb97       0.00361971  leakb97
  1 17 26  leakb95       0.00599940  leakb95
  1 17 26  leakb96       0.06716537  leakb96
  1 17 27  leakb95       0.00199980  leakb95
  1 17 27  leakb96       0.09872790  leakb96
  1 17 28  leakb95       0.00424958  leakb95
  1 17 28  leakb96       0.03010241  leakb96
  1 17 29  leakb95       0.00309969  leakb95
  1 17 29  leakb96       0.00254020  leakb96
  1 17 30  leakb95       0.01072393  leakb95
  1 17 30  leakb96       0.00898072  leakb96
  1 17 30  leakb97       0.00337973  leakb97
  1 17 31  leakb95       0.02002300  leakb95
  1 17 31  leakb96       0.01506120  leakb96
  1 17 31  leakb97       0.00701944  leakb97
  1 17 32  leakb96       0.01474118  leakb96
  1 17 33  leakb96       0.00828066  leakb96
  1 17 33  leakb102       0.03739626  leakb102
  1 17 34  leakb93       0.00304985  leakb93
  1 17 34  leakb101       0.00304985  leakb101
  1 17 34  leakb102       0.00874913  leakb102
  1 17 38  leakb93  1.49992500E-04  leakb93
  1 17 38  leakb101  1.49992500E-04  leakb101
  1 18 6  leakb25       0.00169983  leakb25
  1 18 6  leakb62       0.53720000  leakb62
  1 18 7  leakb25       0.01779822  leakb25
  1 18 7  leakb62       0.12240000  leakb62
  1 18 7  leakb97       0.01725862  leakb97
  1 18 8  leakb25       0.02759724  leakb25
  1 18 8  leakb102  2.49975002E-04  leakb102
  1 18 9  leakb25       0.00509949  leakb25
  1 18 9  leakb102       0.00709929  leakb102
  1 18 10  leakb81       0.02050410  leakb81
  1 18 10  leakb102       0.00304970  leakb102
  1 18 11  leakb81       0.06521304  leakb81
  1 18 12  leakb81       0.05431086  leakb81
  1 18 16  leakb05       0.00000000  leakb05
  1 18 17  leakb05       0.00210000  leakb05
  1 18 17  leakb81       0.01310262  leakb81
  1 18 18  leakb05       0.00790000  leakb05
  1 18 18  leakb81       0.00810162  leakb81
  1 18 19  leakb05       0.01100000  leakb05
  1 18 19  leakb93       0.00404980  leakb93
  1 18 19  leakb101       0.00404980  leakb101
  1 18 20  leakb05       0.00330000  leakb05
  1 18 20  leakb93       0.00734963  leakb93
  1 18 20  leakb101       0.00734963  leakb101
  1 18 21  leakb05  1.00000000E-04  leakb05
  1 18 22  leakb05  5.00000000E-04  leakb05
  1 18 22  leakb93  9.99950002E-05  leakb93
  1 18 22  leakb101  9.99950002E-05  leakb101
  1 18 23  leakb93  4.99975001E-05  leakb93
  1 18 23  leakb101  4.99975001E-05  leakb101
  1 18 23  leakb102  4.99950005E-05  leakb102
  1 18 24  leakb93       0.00114994  leakb93
  1 18 24  leakb97  4.59963203E-04  leakb97
  1 18 24  leakb101       0.00114994  leakb101
  1 18 24  leakb102       0.01009899  leakb102
  1 18 25  leakb93       0.00469977  leakb93
  1 18 25  leakb97       0.00117991  leakb97
  1 18 25  leakb101       0.00469977  leakb101
  1 18 25  leakb102       0.03129687  leakb102
  1 18 26  leakb93       0.00214989  leakb93
  1 18 26  leakb96       0.01600128  leakb96
  1 18 26  leakb97       0.00147988  leakb97
  1 18 26  leakb101       0.00214989  leakb101
  1 18 26  leakb102       0.02409759  leakb102
  1 18 27  leakb96       0.03302264  leakb96
  1 18 27  leakb97       0.00123990  leakb97
  1 18 28  leakb95  1.99980002E-04  leakb95
  1 18 28  leakb96       0.01866149  leakb96
  1 18 29  leakb96       0.01256100  leakb96
  1 18 30  leakb96       0.01070086  leakb96
  1 18 31  leakb96       0.01462117  leakb96
  1 18 32  leakb96       0.01382111  leakb96
  1 18 32  leakb102       0.00739926  leakb102
  1 18 33  leakb93       0.00864957  leakb93
  1 18 33  leakb96       0.00538043  leakb96
  1 18 33  leakb101       0.00864957  leakb101
  1 18 33  leakb102       0.02709729  leakb102
  1 18 34  leakb102  6.49935006E-04  leakb102
  1 18 37  leakb93       0.01234938  leakb93
  1 18 37  leakb101       0.01234938  leakb101
  1 19 6  leakb25       0.01489851  leakb25
  1 19 6  leakb62       0.06340000  leakb62
  1 19 6  leakb97       0.03445724  leakb97
  1 19 7  leakb25       0.02499750  leakb25
  1 19 8  leakb25       0.02179782  leakb25
  1 19 8  leakb102       0.00599940  leakb102
  1 19 9  leakb81       0.00160032  leakb81
  1 19 9  leakb102       0.01174883  leakb102
  1 19 10  leakb81       0.05871174  leakb81
  1 19 10  leakb102       0.00684932  leakb102
  1 19 11  leakb81       0.06411282  leakb81
  1 19 12  leakb81       0.02830566  leakb81
  1 19 16  leakb05  1.00000000E-04  leakb05
  1 19 17  leakb05       0.00410000  leakb05
  1 19 17  leakb81       0.00210042  leakb81
  1 19 18  leakb05       0.01040000  leakb05
  1 19 19  leakb05       0.00900000  leakb05
  1 19 19  leakb93  7.99960002E-04  leakb93
  1 19 19  leakb101  7.99960002E-04  leakb101
  1 19 20  leakb05       0.00160000  leakb05
  1 19 20  leakb93       0.00594970  leakb93
  1 19 20  leakb101       0.00594970  leakb101
  1 19 21  leakb05       0.00110000  leakb05
  1 19 21  leakb93       0.00279986  leakb93
  1 19 21  leakb101       0.00279986  leakb101
  1 19 22  leakb05       0.00210000  leakb05
  1 19 22  leakb93       0.00104995  leakb93
  1 19 22  leakb101       0.00104995  leakb101
  1 19 26  leakb93  4.99975001E-05  leakb93
  1 19 26  leakb97  3.99968003E-05  leakb97
  1 19 26  leakb101  4.99975001E-05  leakb101
  1 19 26  leakb102       0.00184982  leakb102
  1 19 27  leakb93  1.99990000E-04  leakb93
  1 19 27  leakb96       0.01076086  leakb96
  1 19 27  leakb97       0.00141989  leakb97
  1 19 27  leakb101  1.99990000E-04  leakb101
  1 19 27  leakb102       0.01824818  leakb102
  1 19 28  leakb96       0.01088087  leakb96
  1 19 28  leakb97       0.00115991  leakb97
  1 19 28  leakb102       0.01559844  leakb102
  1 19 29  leakb96       0.01514121  leakb96
  1 19 29  leakb97  1.39988801E-04  leakb97
  1 19 29  leakb102       0.00249975  leakb102
  1 19 30  leakb96       0.01146092  leakb96
  1 19 30  leakb97  1.19990401E-04  leakb97
  1 19 30  leakb102  8.49915008E-04  leakb102
  1 19 31  leakb93       0.00604970  leakb93
  1 19 31  leakb96       0.01156092  leakb96
  1 19 31  leakb101       0.00604970  leakb101
  1 19 31  leakb102       0.01594841  leakb102
  1 19 32  leakb93       0.00149993  leakb93
  1 19 32  leakb96       0.00594048  leakb96
  1 19 32  leakb101       0.00149993  leakb101
  1 19 32  leakb102       0.01584842  leakb102
  1 19 33  leakb93  7.49962502E-04  leakb93
  1 19 33  leakb101  7.49962502E-04  leakb101
  1 19 33  leakb102       0.00154985  leakb102
  1 19 36  leakb93  6.99965002E-04  leakb93
  1 19 36  leakb101  6.99965002E-04  leakb101
  1 19 37  leakb93  6.99965002E-04  leakb93
  1 19 37  leakb101  6.99965002E-04  leakb101
  1 20 6  leakb25       0.01409859  leakb25
  1 20 7  leakb25       0.02639736  leakb25
  1 20 8  leakb05       0.00240000  leakb05
  1 20 8  leakb25       0.01399860  leakb25
  1 20 8  leakb102       0.00784922  leakb102
  1 20 9  leakb05       0.00340000  leakb05
  1 20 9  leakb81       0.02390478  leakb81
  1 20 9  leakb102       0.00679932  leakb102
  1 20 10  leakb05       0.00420000  leakb05
  1 20 10  leakb81       0.02390478  leakb81
  1 20 10  leakb102       0.00239976  leakb102
  1 20 11  leakb05       0.00220000  leakb05
  1 20 11  leakb81       0.06801360  leakb81
  1 20 12  leakb05       0.00390000  leakb05
  1 20 12  leakb81       0.05871174  leakb81
  1 20 13  leakb81  8.00160032E-04  leakb81
  1 20 15  leakb81       0.04530906  leakb81
  1 20 16  leakb81       0.00940188  leakb81
  1 20 17  leakb05       0.00000000  leakb05
  1 20 17  leakb81  4.00080016E-04  leakb81
  1 20 18  leakb05       0.00290000  leakb05
  1 20 18  leakb81       0.01160232  leakb81
  1 20 19  leakb05       0.01050000  leakb05
  1 20 20  leakb05       0.00470000  leakb05
  1 20 20  leakb93       0.00179991  leakb93
  1 20 20  leakb101       0.00179991  leakb101
  1 20 21  leakb05       0.00300000  leakb05
  1 20 21  leakb93       0.00474976  leakb93
  1 20 21  leakb101       0.00474976  leakb101
  1 20 22  leakb05       0.00670000  leakb05
  1 20 22  leakb93       0.00574971  leakb93
  1 20 22  leakb101       0.00574971  leakb101
  1 20 24  leakb93       0.00119994  leakb93
  1 20 24  leakb101       0.00119994  leakb101
  1 20 25  leakb93  9.99950002E-05  leakb93
  1 20 25  leakb101  9.99950002E-05  leakb101
  1 20 28  leakb102       0.00464954  leakb102
  1 20 29  leakb93       0.00114994  leakb93
  1 20 29  leakb96       0.00114009  leakb96
  1 20 29  leakb97  7.99936005E-04  leakb97
  1 20 29  leakb101       0.00114994  leakb101
  1 20 29  leakb102       0.01199880  leakb102
  1 20 30  leakb93       0.00179991  leakb93
  1 20 30  leakb96  3.60028802E-04  leakb96
  1 20 30  leakb97  3.99968003E-05  leakb97
  1 20 30  leakb101       0.00179991  leakb101
  1 20 30  leakb102       0.01144886  leakb102
  1 20 31  leakb93       0.00169992  leakb93
  1 20 31  leakb101       0.00169992  leakb101
  1 20 31  leakb102       0.00394961  leakb102
  1 20 35  leakb93       0.00139993  leakb93
  1 20 35  leakb101       0.00139993  leakb101
  1 20 36  leakb93       0.12309385  leakb93
  1 20 36  leakb101       0.12309385  leakb101
  1 20 37  leakb93       0.03604820  leakb93
  1 20 37  leakb101       0.03604820  leakb101
  1 21 5  leakb88       0.01751930  leakb88
  1 21 6  leakb25       0.00000000  leakb25
  1 21 6  leakb88       0.01641934  leakb88
  1 21 7  leakb25       0.01479852  leakb25
  1 21 7  leakb88  8.99964001E-04  leakb88
  1 21 8  leakb05  8.00000000E-04  leakb05
  1 21 8  leakb25       0.02849715  leakb25
  1 21 9  leakb05       0.00500000  leakb05
  1 21 9  leakb25       0.02359764  leakb25
  1 21 10  leakb05       0.01160000  leakb05
  1 21 10  leakb25       0.00359964  leakb25
  1 21 11  leakb05       0.00850000  leakb05
  1 21 11  leakb81       0.00770154  leakb81
  1 21 12  leakb05       0.00600000  leakb05
  1 21 12  leakb81       0.07271454  leakb81
  1 21 13  leakb81       0.00370074  leakb81
  1 21 16  leakb05       0.00200000  leakb05
  1 21 16  leakb81       0.01660332  leakb81
  1 21 17  leakb05  8.00000000E-04  leakb05
  1 21 17  leakb81       0.03000600  leakb81
  1 21 18  leakb05       0.00400000  leakb05
  1 21 18  leakb81       0.00750150  leakb81
  1 21 19  leakb05       0.00830000  leakb05
  1 21 20  leakb05       0.00910000  leakb05
  1 21 21  leakb05       0.00930000  leakb05
  1 21 22  leakb05       0.00810000  leakb05
  1 21 23  leakb05  9.00000000E-04  leakb05
  1 21 24  leakb05       0.00170000  leakb05
  1 21 24  leakb93       0.00714964  leakb93
  1 21 24  leakb101       0.00714964  leakb101
  1 21 25  leakb93       0.00204990  leakb93
  1 21 25  leakb101       0.00204990  leakb101
  1 21 34  leakb93       0.00174991  leakb93
  1 21 34  leakb101       0.00174991  leakb101
  1 21 35  leakb93  2.49987501E-04  leakb93
  1 21 35  leakb101  2.49987501E-04  leakb101
  1 21 36  leakb93       0.05164742  leakb93
  1 21 36  leakb101       0.05164742  leakb101
  1 22 5  leakb62       0.04850000  leakb62
  1 22 5  leakb88       0.06151754  leakb88
  1 22 6  leakb88       0.08367665  leakb88
  1 22 7  leakb25  3.99960004E-04  leakb25
  1 22 7  leakb88       0.06089756  leakb88
  1 22 8  leakb25       0.02059794  leakb25
  1 22 8  leakb88       0.00783969  leakb88
  1 22 9  leakb25       0.02869713  leakb25
  1 22 10  leakb05       0.00170000  leakb05
  1 22 10  leakb25       0.02589741  leakb25
  1 22 11  leakb05       0.00820000  leakb05
  1 22 11  leakb25       0.01559844  leakb25
  1 22 12  leakb05       0.00940000  leakb05
  1 22 12  leakb25       0.00159984  leakb25
  1 22 12  leakb81       0.00150030  leakb81
  1 22 13  leakb05       0.00430000  leakb05
  1 22 13  leakb81       0.00240048  leakb81
  1 22 14  leakb05       0.00130000  leakb05
  1 22 14  leakb81       0.00780156  leakb81
  1 22 15  leakb05  2.00000000E-04  leakb05
  1 22 15  leakb81  8.00160032E-04  leakb81
  1 22 16  leakb05  1.00000000E-04  leakb05
  1 22 17  leakb05       0.00490000  leakb05
  1 22 17  leakb81       0.01520304  leakb81
  1 22 18  leakb05       0.00720000  leakb05
  1 22 18  leakb81       0.00300060  leakb81
  1 22 19  leakb05       0.00930000  leakb05
  1 22 20  leakb05       0.01160000  leakb05
  1 22 21  leakb05       0.00700000  leakb05
  1 22 22  leakb05       0.01000000  leakb05
  1 22 23  leakb05       0.00230000  leakb05
  1 22 24  leakb05       0.00610000  leakb05
  1 22 24  leakb93       0.00724964  leakb93
  1 22 24  leakb101       0.00724964  leakb101
  1 22 25  leakb05       0.00170000  leakb05
  1 22 25  leakb93       0.00379981  leakb93
  1 22 25  leakb101       0.00379981  leakb101
  1 22 26  leakb93       0.00409980  leakb93
  1 22 26  leakb101       0.00409980  leakb101
  1 22 33  leakb93  2.49987501E-04  leakb93
  1 22 33  leakb101  2.49987501E-04  leakb101
  1 22 34  leakb93  4.99975001E-05  leakb93
  1 22 34  leakb101  4.99975001E-05  leakb101
  1 23 5  leakb62       0.13660000  leakb62
  1 23 5  leakb88       0.04981801  leakb88
  1 23 5  leakb90  6.99912511E-04  leakb90
  1 23 6  leakb88       0.07829687  leakb88
  1 23 6  leakb90  2.24971879E-04  leakb90
  1 23 7  leakb88       0.10223591  leakb88
  1 23 7  leakb90       0.00164979  leakb90
  1 23 8  leakb25       0.00229977  leakb25
  1 23 8  leakb88       0.07647694  leakb88
  1 23 9  leakb25       0.02079792  leakb25
  1 23 9  leakb88       0.04131835  leakb88
  1 23 10  leakb25       0.02659734  leakb25
  1 23 11  leakb25       0.02799720  leakb25
  1 23 12  leakb05       0.00770000  leakb05
  1 23 12  leakb25       0.01749825  leakb25
  1 23 13  leakb05       0.01130000  leakb05
  1 23 14  leakb05       0.01020000  leakb05
  1 23 14  leakb81       0.00730146  leakb81
  1 23 15  leakb05       0.00640000  leakb05
  1 23 15  leakb81  7.00140028E-04  leakb81
  1 23 16  leakb05       0.00840000  leakb05
  1 23 17  leakb05       0.00920000  leakb05
  1 23 18  leakb05       0.00960000  leakb05
  1 23 19  leakb05       0.00860000  leakb05
  1 23 20  leakb05       0.00830000  leakb05
  1 23 21  leakb05       0.01020000  leakb05
  1 23 22  leakb05       0.00930000  leakb05
  1 23 23  leakb05       0.01020000  leakb05
  1 23 24  leakb05       0.00510000  leakb05
  1 23 25  leakb05       0.00140000  leakb05
  1 23 32  leakb93       0.00689966  leakb93
  1 23 32  leakb101       0.00689966  leakb101