BEGIN options
  auxiliary  multiplier
  AUXMULTNAME  multiplier
  BOUNDNAMES
  SAVE_FLOWS
  TS6  FILEIN  mf6-tv_scenario-pumping_rates-semi.ts
END options

BEGIN dimensions
  MAXBOUND  5620
END dimensions

BEGIN period  1
  1 5 9  pump_sem94   7.0780600E-03  pump_sem94
  1 5 9  pump_sem97   6.3582600E-03  pump_sem97
  5 5 9  pump_sem94   1.1789860E-02  pump_sem94
  5 5 9  pump_sem97   1.0590890E-02  pump_sem97
  1 5 10  pump_sem94   4.7913600E-03  pump_sem94
  1 5 10  pump_sem97   2.8694000E-03  pump_sem97
  5 5 10  pump_sem94   3.2944490E-02  pump_sem94
  5 5 10  pump_sem97   1.9729470E-02  pump_sem97
  1 5 11  pump_sem94   5.4841100E-03  pump_sem94
  5 5 11  pump_sem94   3.2251740E-02  pump_sem94
  1 5 12  pump_sem94   5.2814800E-03  pump_sem94
  5 5 12  pump_sem94   3.2454370E-02  pump_sem94
  1 5 13  pump_sem94   4.8672500E-03  pump_sem94
  5 5 13  pump_sem94   3.2868600E-02  pump_sem94
  1 6 9  pump_sem97   4.5147800E-03  pump_sem97
  5 6 9  pump_sem97   6.7846500E-03  pump_sem97
  1 6 10  pump_sem94   2.3078240E-02  pump_sem94
  1 6 10  pump_sem97   1.7276080E-02  pump_sem97
  1 6 10  pump_sem102   4.8537600E-03  pump_sem102
  5 6 10  pump_sem94   1.4657610E-02  pump_sem94
  5 6 10  pump_sem97   1.0972500E-02  pump_sem97
  5 6 10  pump_sem102   3.0827500E-03  pump_sem102
  1 6 11  pump_sem94   2.3078240E-02  pump_sem94
  1 6 11  pump_sem97   1.7276080E-02  pump_sem97
  1 6 11  pump_sem102   4.8537600E-03  pump_sem102
  5 6 11  pump_sem94   1.4657610E-02  pump_sem94
  5 6 11  pump_sem97   1.0972500E-02  pump_sem97
  5 6 11  pump_sem102   3.0827500E-03  pump_sem102
  1 6 12  pump_sem94   7.0429500E-03  pump_sem94
  1 6 12  pump_sem97   1.0544500E-03  pump_sem97
  5 6 12  pump_sem94   3.0692900E-02  pump_sem94
  5 6 12  pump_sem97   4.5952600E-03  pump_sem97
  1 6 13  pump_sem94   6.1543600E-03  pump_sem94
  1 6 13  pump_sem97   9.2142000E-04  pump_sem97
  5 6 13  pump_sem94   3.1581490E-02  pump_sem94
  5 6 13  pump_sem97   4.7283000E-03  pump_sem97
  1 6 14  pump_sem94   2.6720700E-03  pump_sem94
  5 6 14  pump_sem94   1.6195860E-02  pump_sem94
  1 7 9  pump_sem97   4.8588300E-03  pump_sem97
  5 7 9  pump_sem97   6.4406000E-03  pump_sem97
  1 7 10  pump_sem94   2.3078240E-02  pump_sem94
  1 7 10  pump_sem97   1.7276080E-02  pump_sem97
  1 7 10  pump_sem102   4.8537600E-03  pump_sem102
  5 7 10  pump_sem94   1.4657610E-02  pump_sem94
  5 7 10  pump_sem97   1.0972500E-02  pump_sem97
  5 7 10  pump_sem102   3.0827500E-03  pump_sem102
  1 7 11  pump_sem94   2.3078240E-02  pump_sem94
  1 7 11  pump_sem97   1.7276080E-02  pump_sem97
  1 7 11  pump_sem102   4.8537600E-03  pump_sem102
  5 7 11  pump_sem94   1.4657610E-02  pump_sem94
  5 7 11  pump_sem97   1.0972500E-02  pump_sem97
  5 7 11  pump_sem102   3.0827500E-03  pump_sem102
  1 7 12  pump_sem94   3.9982500E-03  pump_sem94
  1 7 12  pump_sem97   1.1972200E-03  pump_sem97
  5 7 12  pump_sem94   1.4869670E-02  pump_sem94
  5 7 12  pump_sem97   4.4525000E-03  pump_sem97
  1 7 13  pump_sem94   3.9242300E-03  pump_sem94
  1 7 13  pump_sem97   1.1750500E-03  pump_sem97
  5 7 13  pump_sem94   1.4943700E-02  pump_sem94
  5 7 13  pump_sem97   4.4746700E-03  pump_sem97
  1 7 14  pump_sem94   8.4542700E-03  pump_sem94
  1 7 14  pump_sem97   1.2657500E-03  pump_sem97
  5 7 14  pump_sem94   2.9281580E-02  pump_sem94
  5 7 14  pump_sem97   4.3839700E-03  pump_sem97
  1 7 15  pump_sem94   9.0106900E-03  pump_sem94
  1 7 15  pump_sem95   1.9572400E-03  pump_sem95
  1 7 15  pump_sem97   1.3490600E-03  pump_sem97
  5 7 15  pump_sem94   2.8725150E-02  pump_sem94
  5 7 15  pump_sem95   6.2394800E-03  pump_sem95
  5 7 15  pump_sem97   4.3006600E-03  pump_sem97
  1 7 16  pump_sem94   3.7735850E-02  pump_sem94
  1 7 16  pump_sem95   8.1967200E-03  pump_sem95
  1 8 9  pump_sem97   9.9947900E-03  pump_sem97
  5 8 9  pump_sem97   6.9543700E-03  pump_sem97
  1 8 10  pump_sem94   2.2927210E-02  pump_sem94
  1 8 10  pump_sem97   1.7163030E-02  pump_sem97
  1 8 10  pump_sem102   4.8219900E-03  pump_sem102
  5 8 10  pump_sem94   1.4808630E-02  pump_sem94
  5 8 10  pump_sem97   1.1085560E-02  pump_sem97
  5 8 10  pump_sem102   3.1145100E-03  pump_sem102
  1 8 11  pump_sem94   2.2927210E-02  pump_sem94
  1 8 11  pump_sem97   1.7163030E-02  pump_sem97
  1 8 11  pump_sem102   4.8219900E-03  pump_sem102
  5 8 11  pump_sem94   1.4808630E-02  pump_sem94
  5 8 11  pump_sem97   1.1085560E-02  pump_sem97
  5 8 11  pump_sem102   3.1145100E-03  pump_sem102
  1 8 12  pump_sem97   1.3050200E-03  pump_sem97
  5 8 12  pump_sem97   4.3447000E-03  pump_sem97
  1 8 13  pump_sem97   1.4764700E-03  pump_sem97
  5 8 13  pump_sem97   4.1732500E-03  pump_sem97
  1 8 14  pump_sem97   4.8608900E-03  pump_sem97
  5 8 14  pump_sem97   7.8883000E-04  pump_sem97
  1 8 15  pump_sem97   4.7619500E-03  pump_sem97
  5 8 15  pump_sem97   8.8777000E-04  pump_sem97
  1 8 16  pump_sem94   3.7735850E-02  pump_sem94
  1 8 16  pump_sem97   5.6497200E-03  pump_sem97
  1 8 17  pump_sem94   5.6603770E-02  pump_sem94
  1 9 9  pump_sem97   1.0814560E-02  pump_sem97
  5 9 9  pump_sem97   6.1346000E-03  pump_sem97
  1 9 10  pump_sem97   8.7861300E-03  pump_sem97
  4 9 10  pump_sem97   3.7857300E-03  pump_sem97
  5 9 10  pump_sem97   4.3773000E-03  pump_sem97
  1 9 11  pump_sem97   6.2004100E-03  pump_sem97
  4 9 11  pump_sem97   2.3671800E-03  pump_sem97
  5 9 11  pump_sem97   2.7318400E-03  pump_sem97
  1 9 12  pump_sem97   7.5220200E-03  pump_sem97
  4 9 12  pump_sem97   2.0265500E-03  pump_sem97
  5 9 12  pump_sem97   1.7508700E-03  pump_sem97
  1 9 13  pump_sem97   8.8029000E-03  pump_sem97
  4 9 13  pump_sem97   2.4965300E-03  pump_sem97
  1 9 14  pump_sem97   1.1299440E-02  pump_sem97
  1 9 15  pump_sem97   1.1299440E-02  pump_sem97
  1 9 16  pump_sem94   3.7735850E-02  pump_sem94
  1 9 16  pump_sem97   1.1299440E-02  pump_sem97
  1 9 17  pump_sem94   3.7735850E-02  pump_sem94
  1 9 17  pump_sem97   5.6497200E-03  pump_sem97
  1 9 18  pump_sem94   4.6142520E-02  pump_sem94
  1 9 18  pump_sem95   6.6818400E-03  pump_sem95
  4 9 18  pump_sem94   1.0461250E-02  pump_sem94
  4 9 18  pump_sem95   1.5148800E-03  pump_sem95
  1 10 8  pump_sem97   2.9604800E-03  pump_sem97
  5 10 8  pump_sem97   2.6892300E-03  pump_sem97
  1 10 9  pump_sem97   3.7640700E-03  pump_sem97
  5 10 9  pump_sem97   1.8856400E-03  pump_sem97
  1 10 10  pump_sem97   8.1395600E-03  pump_sem97
  1 10 10  pump_sem102   3.8113800E-03  pump_sem102
  4 10 10  pump_sem97   5.9562600E-03  pump_sem97
  4 10 10  pump_sem102   2.7890400E-03  pump_sem102
  5 10 10  pump_sem97   2.8533300E-03  pump_sem97
  5 10 10  pump_sem102   1.3360800E-03  pump_sem102
  1 10 11  pump_sem97   2.2120100E-03  pump_sem97
  1 10 11  pump_sem102   3.1073500E-03  pump_sem102
  4 10 11  pump_sem97   2.7956800E-03  pump_sem97
  4 10 11  pump_sem102   3.9272600E-03  pump_sem102
  5 10 11  pump_sem97   6.4203000E-04  pump_sem97
  5 10 11  pump_sem102   9.0190000E-04  pump_sem102
  1 10 12  pump_sem97   2.8382800E-03  pump_sem97
  1 10 12  pump_sem102   3.9871000E-03  pump_sem102
  4 10 12  pump_sem97   2.8114400E-03  pump_sem97
  4 10 12  pump_sem102   3.9494000E-03  pump_sem102
  1 10 13  pump_sem97   3.4963600E-03  pump_sem97
  4 10 13  pump_sem97   2.1533600E-03  pump_sem97
  1 10 14  pump_sem97   8.1896500E-03  pump_sem97
  4 10 14  pump_sem97   3.1097800E-03  pump_sem97
  1 10 15  pump_sem97   8.0630900E-03  pump_sem97
  4 10 15  pump_sem97   3.2363500E-03  pump_sem97
  1 10 16  pump_sem97   8.9963200E-03  pump_sem97
  4 10 16  pump_sem97   2.3031100E-03  pump_sem97
  1 10 17  pump_sem94   1.3921390E-02  pump_sem94
  1 10 17  pump_sem97   8.3371100E-03  pump_sem97
  4 10 17  pump_sem94   4.9465300E-03  pump_sem94
  4 10 17  pump_sem97   2.9623300E-03  pump_sem97
  1 10 18  pump_sem94   1.1747430E-02  pump_sem94
  1 10 18  pump_sem97   3.5175900E-03  pump_sem97
  4 10 18  pump_sem94   7.1204900E-03  pump_sem94
  4 10 18  pump_sem97   2.1321300E-03  pump_sem97
  1 10 19  pump_sem94   3.3704750E-02  pump_sem94
  1 10 19  pump_sem95   4.8807400E-03  pump_sem95
  4 10 19  pump_sem94   2.2899030E-02  pump_sem94
  4 10 19  pump_sem95   3.3159800E-03  pump_sem95
  1 11 8  pump_sem97   6.5499100E-03  pump_sem97
  5 11 8  pump_sem97   4.7495200E-03  pump_sem97
  1 11 9  pump_sem97   3.6875800E-03  pump_sem97
  1 11 9  pump_sem102   2.5900800E-03  pump_sem102
  4 11 9  pump_sem97   5.6594500E-03  pump_sem97
  4 11 9  pump_sem102   3.9750900E-03  pump_sem102
  5 11 9  pump_sem97   1.9524100E-03  pump_sem97
  5 11 9  pump_sem102   1.3713300E-03  pump_sem102
  1 11 10  pump_sem97   1.9928400E-03  pump_sem97
  1 11 10  pump_sem102   2.7994600E-03  pump_sem102
  4 11 10  pump_sem97   2.8648100E-03  pump_sem97
  4 11 10  pump_sem102   4.0243700E-03  pump_sem102
  5 11 10  pump_sem97   7.9208000E-04  pump_sem97
  5 11 10  pump_sem102   1.1126800E-03  pump_sem102
  1 11 11  pump_sem97   1.8944300E-03  pump_sem97
  1 11 11  pump_sem102   2.6612200E-03  pump_sem102
  4 11 11  pump_sem97   3.1349000E-03  pump_sem97
  4 11 11  pump_sem102   4.4037900E-03  pump_sem102
  5 11 11  pump_sem97   6.2039000E-04  pump_sem97
  5 11 11  pump_sem102   8.7150000E-04  pump_sem102
  1 11 12  pump_sem97   2.2428400E-03  pump_sem97
  1 11 12  pump_sem102   3.1506600E-03  pump_sem102
  4 11 12  pump_sem97   3.4068700E-03  pump_sem97
  4 11 12  pump_sem102   4.7858500E-03  pump_sem102
  1 11 13  pump_sem97   2.7410600E-03  pump_sem97
  1 11 13  pump_sem102   3.8505400E-03  pump_sem102
  4 11 13  pump_sem97   2.9086600E-03  pump_sem97
  4 11 13  pump_sem102   4.0859700E-03  pump_sem102
  1 11 14  pump_sem97   3.5055100E-03  pump_sem97
  1 11 14  pump_sem102   4.9244100E-03  pump_sem102
  4 11 14  pump_sem97   2.1442100E-03  pump_sem97
  4 11 14  pump_sem102   3.0121000E-03  pump_sem102
  1 11 15  pump_sem97   6.7747800E-03  pump_sem97
  1 11 15  pump_sem102   4.7584800E-03  pump_sem102
  4 11 15  pump_sem97   4.5246600E-03  pump_sem97
  4 11 15  pump_sem102   3.1780300E-03  pump_sem102
  1 11 16  pump_sem97   8.0546800E-03  pump_sem97
  1 11 16  pump_sem102   5.6574500E-03  pump_sem102
  4 11 16  pump_sem97   3.2447500E-03  pump_sem97
  4 11 16  pump_sem102   2.2790500E-03  pump_sem102
  1 11 17  pump_sem97   7.8373600E-03  pump_sem97
  1 11 17  pump_sem102   5.5048200E-03  pump_sem102
  4 11 17  pump_sem97   3.4620700E-03  pump_sem97
  4 11 17  pump_sem102   2.4316900E-03  pump_sem102
  1 11 18  pump_sem94   1.2244700E-02  pump_sem94
  1 11 18  pump_sem97   7.3329900E-03  pump_sem97
  4 11 18  pump_sem94   6.6232200E-03  pump_sem94
  4 11 18  pump_sem97   3.9664500E-03  pump_sem97
  1 11 19  pump_sem94   9.3870100E-03  pump_sem94
  1 11 19  pump_sem95   8.1559300E-03  pump_sem95
  1 11 19  pump_sem97   2.8108000E-03  pump_sem97
  4 11 19  pump_sem94   7.1232400E-03  pump_sem94
  4 11 19  pump_sem95   6.1890400E-03  pump_sem95
  4 11 19  pump_sem97   2.1329500E-03  pump_sem97
  5 11 19  pump_sem94   2.3576800E-03  pump_sem94
  5 11 19  pump_sem95   2.0484700E-03  pump_sem95
  5 11 19  pump_sem97   7.0597000E-04  pump_sem97
  1 11 20  pump_sem95   9.1020300E-03  pump_sem95
  4 11 20  pump_sem95   1.8691730E-02  pump_sem95
  5 11 20  pump_sem95   4.9931300E-03  pump_sem95
  1 11 21  pump_sem95   1.1628720E-02  pump_sem95
  4 11 21  pump_sem95   1.5596290E-02  pump_sem95
  5 11 21  pump_sem95   5.5618700E-03  pump_sem95
  1 11 22  pump_sem95   5.6030000E-03  pump_sem95
  4 11 22  pump_sem95   7.6109700E-03  pump_sem95
  5 11 22  pump_sem95   3.1794700E-03  pump_sem95
  1 12 8  pump_sem97   4.1986600E-03  pump_sem97
  1 12 8  pump_sem102   5.8981100E-03  pump_sem102
  5 12 8  pump_sem97   1.4510600E-03  pump_sem97
  5 12 8  pump_sem102   2.0383900E-03  pump_sem102
  1 12 9  pump_sem97   2.7952100E-03  pump_sem97
  1 12 9  pump_sem102   1.9633000E-03  pump_sem102
  4 12 9  pump_sem97   7.2006300E-03  pump_sem97
  4 12 9  pump_sem102   5.0575900E-03  pump_sem102
  5 12 9  pump_sem97   1.3035900E-03  pump_sem97
  5 12 9  pump_sem102   9.1562000E-04  pump_sem102
  1 12 10  pump_sem102   1.7969800E-03  pump_sem102
  4 12 10  pump_sem102   6.1395300E-03  pump_sem102
  1 12 11  pump_sem102   1.8199300E-03  pump_sem102
  4 12 11  pump_sem102   6.1165800E-03  pump_sem102
  1 12 12  pump_sem102   1.7963400E-03  pump_sem102
  4 12 12  pump_sem102   6.1401700E-03  pump_sem102
  1 12 13  pump_sem102   2.4961700E-03  pump_sem102
  4 12 13  pump_sem102   5.4403400E-03  pump_sem102
  1 12 14  pump_sem102   3.0792200E-03  pump_sem102
  4 12 14  pump_sem102   4.8572900E-03  pump_sem102
  1 12 15  pump_sem97   2.8816800E-03  pump_sem97
  1 12 15  pump_sem102   4.0480700E-03  pump_sem102
  4 12 15  pump_sem97   2.7680400E-03  pump_sem97
  4 12 15  pump_sem102   3.8884400E-03  pump_sem102
  1 12 16  pump_sem97   3.3490700E-03  pump_sem97
  1 12 16  pump_sem102   4.7046500E-03  pump_sem102
  4 12 16  pump_sem97   2.3006400E-03  pump_sem97
  4 12 16  pump_sem102   3.2318600E-03  pump_sem102
  1 12 17  pump_sem97   5.9542200E-03  pump_sem97
  1 12 17  pump_sem102   4.1821300E-03  pump_sem102
  4 12 17  pump_sem97   5.3452100E-03  pump_sem97
  4 12 17  pump_sem102   3.7543800E-03  pump_sem102
  1 12 18  pump_sem97   5.7937500E-03  pump_sem97
  4 12 18  pump_sem97   5.5056900E-03  pump_sem97
  1 12 19  pump_sem95   3.1238900E-03  pump_sem95
  1 12 19  pump_sem97   4.3063800E-03  pump_sem97
  4 12 19  pump_sem95   4.2521700E-03  pump_sem95
  4 12 19  pump_sem97   5.8617500E-03  pump_sem97
  5 12 19  pump_sem95   8.2066000E-04  pump_sem95
  5 12 19  pump_sem97   1.1313000E-03  pump_sem97
  1 12 20  pump_sem95   2.9169800E-03  pump_sem95
  4 12 20  pump_sem95   4.2185700E-03  pump_sem95
  5 12 20  pump_sem95   1.0611700E-03  pump_sem95
  1 12 21  pump_sem95   9.4184000E-03  pump_sem95
  4 12 21  pump_sem95   1.1296760E-02  pump_sem95
  5 12 21  pump_sem95   3.8750100E-03  pump_sem95
  1 12 22  pump_sem95   6.1386500E-03  pump_sem95
  4 12 22  pump_sem95   7.6356200E-03  pump_sem95
  5 12 22  pump_sem95   2.6191700E-03  pump_sem95
  1 12 23  pump_sem95   7.3549500E-03  pump_sem95
  4 12 23  pump_sem95   7.0841700E-03  pump_sem95
  5 12 23  pump_sem95   1.9543200E-03  pump_sem95
  1 12 24  pump_sem95   8.7464400E-03  pump_sem95
  4 12 24  pump_sem95   7.6470000E-03  pump_sem95
  1 13 8  pump_sem97   3.6276100E-03  pump_sem97
  1 13 8  pump_sem102   5.0959300E-03  pump_sem102
  5 13 8  pump_sem97   2.0221100E-03  pump_sem97
  5 13 8  pump_sem102   2.8405800E-03  pump_sem102
  1 13 9  pump_sem97   7.6278000E-04  pump_sem97
  1 13 9  pump_sem102   1.0715300E-03  pump_sem102
  4 13 9  pump_sem97   4.1694200E-03  pump_sem97
  4 13 9  pump_sem102   5.8570400E-03  pump_sem102
  5 13 9  pump_sem97   7.1751000E-04  pump_sem97
  5 13 9  pump_sem102   1.0079300E-03  pump_sem102
  1 13 10  pump_sem102   9.3661000E-04  pump_sem102
  4 13 10  pump_sem102   6.2195700E-03  pump_sem102
  5 13 10  pump_sem102   7.8033000E-04  pump_sem102
  1 13 11  pump_sem102   8.2636000E-04  pump_sem102
  4 13 11  pump_sem102   7.1101500E-03  pump_sem102
  1 13 12  pump_sem102   8.6428000E-04  pump_sem102
  4 13 12  pump_sem102   7.0722300E-03  pump_sem102
  1 13 14  pump_sem102   1.3355100E-03  pump_sem102
  4 13 14  pump_sem102   6.6010000E-03  pump_sem102
  1 13 15  pump_sem102   2.3756900E-03  pump_sem102
  4 13 15  pump_sem102   5.5608200E-03  pump_sem102
  1 13 16  pump_sem97   2.2426500E-03  pump_sem97
  1 13 16  pump_sem102   3.1503900E-03  pump_sem102
  4 13 16  pump_sem97   3.4070700E-03  pump_sem97
  4 13 16  pump_sem102   4.7861200E-03  pump_sem102
  1 13 17  pump_sem97   2.5009300E-03  pump_sem97
  1 13 17  pump_sem102   3.5132200E-03  pump_sem102
  4 13 17  pump_sem97   3.1487800E-03  pump_sem97
  4 13 17  pump_sem102   4.4232900E-03  pump_sem102
  1 13 18  pump_sem97   2.3205700E-03  pump_sem97
  1 13 18  pump_sem102   3.2598500E-03  pump_sem102
  4 13 18  pump_sem97   3.3291400E-03  pump_sem97
  4 13 18  pump_sem102   4.6766600E-03  pump_sem102
  1 13 19  pump_sem95   3.4079700E-03  pump_sem95
  1 13 19  pump_sem97   4.6979900E-03  pump_sem97
  1 13 19  pump_sem102   3.2997800E-03  pump_sem102
  4 13 19  pump_sem95   3.9501300E-03  pump_sem95
  4 13 19  pump_sem97   5.4453800E-03  pump_sem97
  4 13 19  pump_sem102   3.8247300E-03  pump_sem102
  5 13 19  pump_sem95   8.3862000E-04  pump_sem95
  5 13 19  pump_sem97   1.1560700E-03  pump_sem97
  5 13 19  pump_sem102   8.1200000E-04  pump_sem102
  1 13 20  pump_sem95   2.8166000E-03  pump_sem95
  1 13 20  pump_sem97   3.8827800E-03  pump_sem97
  4 13 20  pump_sem95   4.3661400E-03  pump_sem95
  4 13 20  pump_sem97   6.0188500E-03  pump_sem97
  5 13 20  pump_sem95   1.0139800E-03  pump_sem95
  5 13 20  pump_sem97   1.3978000E-03  pump_sem97
  1 13 21  pump_sem95   8.6898200E-03  pump_sem95
  1 13 21  pump_sem97   1.9965300E-03  pump_sem97
  4 13 21  pump_sem95   1.2309790E-02  pump_sem95
  4 13 21  pump_sem97   2.8282400E-03  pump_sem97
  5 13 21  pump_sem95   3.5905600E-03  pump_sem95
  5 13 21  pump_sem97   8.2495000E-04  pump_sem97
  1 13 22  pump_sem95   1.2984420E-02  pump_sem95
  4 13 22  pump_sem95   8.8236300E-03  pump_sem95
  5 13 22  pump_sem95   2.7821100E-03  pump_sem95
  1 13 23  pump_sem95   4.0666300E-03  pump_sem95
  4 13 23  pump_sem95   3.2639100E-03  pump_sem95
  5 13 23  pump_sem95   8.6618000E-04  pump_sem95
  1 13 24  pump_sem95   5.0404100E-03  pump_sem95
  4 13 24  pump_sem95   3.1563100E-03  pump_sem95
  1 13 25  pump_sem95   4.2305600E-03  pump_sem95
  4 13 25  pump_sem95   3.9661600E-03  pump_sem95
  1 13 26  pump_sem95   1.0660500E-02  pump_sem95
  4 13 26  pump_sem95   5.7329400E-03  pump_sem95
  1 13 27  pump_sem95   1.0732690E-02  pump_sem95
  4 13 27  pump_sem95   5.6607500E-03  pump_sem95
  1 13 28  pump_sem95   5.1889300E-03  pump_sem95
  4 13 28  pump_sem95   1.1204510E-02  pump_sem95
  1 13 34  pump_sem95   8.7525100E-03  pump_sem95
  1 13 34  pump_sem102   4.2373300E-03  pump_sem102
  4 13 34  pump_sem95   7.6409300E-03  pump_sem95
  4 13 34  pump_sem102   3.6991800E-03  pump_sem102
  1 14 8  pump_sem97   8.1978000E-04  pump_sem97
  1 14 8  pump_sem102   1.1515900E-03  pump_sem102
  4 14 8  pump_sem97   3.7641900E-03  pump_sem97
  4 14 8  pump_sem102   5.2878000E-03  pump_sem102
  5 14 8  pump_sem97   1.0657500E-03  pump_sem97
  5 14 8  pump_sem102   1.4971200E-03  pump_sem102
  4 14 9  pump_sem102   6.9663300E-03  pump_sem102
  5 14 9  pump_sem102   9.7018000E-04  pump_sem102
  4 14 10  pump_sem102   7.1170200E-03  pump_sem102
  5 14 10  pump_sem102   8.1949000E-04  pump_sem102
  4 14 11  pump_sem102   7.9365100E-03  pump_sem102
  4 14 12  pump_sem81   2.9411760E-02  pump_sem81
  4 14 12  pump_sem102   7.9365100E-03  pump_sem102
  1 14 15  pump_sem81   6.1489700E-03  pump_sem81
  1 14 15  pump_sem102   1.6592500E-03  pump_sem102
  4 14 15  pump_sem81   2.3262790E-02  pump_sem81
  4 14 15  pump_sem102   6.2772600E-03  pump_sem102
  1 14 16  pump_sem81   7.0701900E-03  pump_sem81
  1 14 16  pump_sem102   1.9078300E-03  pump_sem102
  4 14 16  pump_sem81   2.2341570E-02  pump_sem81
  4 14 16  pump_sem102   6.0286800E-03  pump_sem102
  1 14 17  pump_sem97   1.6859600E-03  pump_sem97
  1 14 17  pump_sem102   2.3683800E-03  pump_sem102
  4 14 17  pump_sem97   3.9637500E-03  pump_sem97
  4 14 17  pump_sem102   5.5681300E-03  pump_sem102
  1 14 18  pump_sem102   3.4641000E-03  pump_sem102
  4 14 18  pump_sem102   3.6090400E-03  pump_sem102
  5 14 18  pump_sem102   8.6336000E-04  pump_sem102
  1 14 19  pump_sem97   2.1202900E-03  pump_sem97
  1 14 19  pump_sem102   2.9785100E-03  pump_sem102
  4 14 19  pump_sem97   2.9049000E-03  pump_sem97
  4 14 19  pump_sem102   4.0806900E-03  pump_sem102
  5 14 19  pump_sem97   6.2453000E-04  pump_sem97
  5 14 19  pump_sem102   8.7731000E-04  pump_sem102
  1 14 20  pump_sem97   3.3903100E-03  pump_sem97
  1 14 20  pump_sem102   2.3812900E-03  pump_sem102
  4 14 20  pump_sem97   6.4415300E-03  pump_sem97
  4 14 20  pump_sem102   4.5244100E-03  pump_sem102
  5 14 20  pump_sem97   1.4675900E-03  pump_sem97
  5 14 20  pump_sem102   1.0308100E-03  pump_sem102
  1 14 21  pump_sem95   3.0012400E-03  pump_sem95
  1 14 21  pump_sem96   4.5203900E-03  pump_sem96
  1 14 21  pump_sem97   2.0686500E-03  pump_sem97
  4 14 21  pump_sem95   4.0970800E-03  pump_sem95
  4 14 21  pump_sem96   6.1709100E-03  pump_sem96
  4 14 21  pump_sem97   2.8239700E-03  pump_sem97
  5 14 21  pump_sem95   1.0984000E-03  pump_sem95
  5 14 21  pump_sem96   1.6543800E-03  pump_sem96
  5 14 21  pump_sem97   7.5709000E-04  pump_sem97
  1 14 22  pump_sem95   4.6912500E-03  pump_sem95
  1 14 22  pump_sem96   7.0658400E-03  pump_sem96
  1 14 22  pump_sem97   3.2335200E-03  pump_sem97
  4 14 22  pump_sem95   3.5054700E-03  pump_sem95
  4 14 22  pump_sem96   5.2798400E-03  pump_sem96
  4 14 22  pump_sem97   2.4162000E-03  pump_sem97
  1 14 23  pump_sem95   1.2620160E-02  pump_sem95
  4 14 23  pump_sem95   1.1970010E-02  pump_sem95
  1 14 24  pump_sem95   9.8600000E-03  pump_sem95
  4 14 24  pump_sem95   6.5334400E-03  pump_sem95
  1 14 25  pump_sem95   9.2884100E-03  pump_sem95
  4 14 25  pump_sem95   7.1050300E-03  pump_sem95
  1 14 26  pump_sem95   5.6583100E-03  pump_sem95
  4 14 26  pump_sem95   2.5384100E-03  pump_sem95
  1 14 27  pump_sem95   4.5090700E-03  pump_sem95
  4 14 27  pump_sem95   3.6876500E-03  pump_sem95
  1 14 28  pump_sem95   2.4667200E-03  pump_sem95
  4 14 28  pump_sem95   5.7300000E-03  pump_sem95
  1 14 29  pump_sem95   4.2433900E-03  pump_sem95
  4 14 29  pump_sem95   3.9533300E-03  pump_sem95
  1 14 30  pump_sem95   4.5940100E-03  pump_sem95
  4 14 30  pump_sem95   3.6027100E-03  pump_sem95
  1 14 31  pump_sem95   3.9880200E-03  pump_sem95
  4 14 31  pump_sem95   4.2087000E-03  pump_sem95
  1 14 32  pump_sem95   4.3260600E-03  pump_sem95
  4 14 32  pump_sem95   3.8706600E-03  pump_sem95
  1 14 33  pump_sem95   9.4022600E-03  pump_sem95
  1 14 33  pump_sem96   7.0807100E-03  pump_sem96
  4 14 33  pump_sem95   6.9911800E-03  pump_sem95
  4 14 33  pump_sem96   5.2649700E-03  pump_sem96
  1 14 34  pump_sem95   9.2305500E-03  pump_sem95
  1 14 34  pump_sem96   6.9514000E-03  pump_sem96
  1 14 34  pump_sem102   4.4687600E-03  pump_sem102
  4 14 34  pump_sem95   7.1628900E-03  pump_sem95
  4 14 34  pump_sem96   5.3942800E-03  pump_sem96
  4 14 34  pump_sem102   3.4677500E-03  pump_sem102
  1 14 35  pump_sem93   2.9580800E-03  pump_sem93
  1 14 35  pump_sem95   2.9095900E-03  pump_sem95
  1 14 35  pump_sem96   4.3823500E-03  pump_sem96
  1 14 35  pump_sem101   2.9580800E-03  pump_sem101
  1 14 35  pump_sem102   2.8172200E-03  pump_sem102
  3 14 35  pump_sem93   9.7967000E-04  pump_sem93
  3 14 35  pump_sem95   9.6361000E-04  pump_sem95
  3 14 35  pump_sem96   1.4513700E-03  pump_sem96
  3 14 35  pump_sem101   9.7967000E-04  pump_sem101
  3 14 35  pump_sem102   9.3302000E-04  pump_sem102
  4 14 35  pump_sem93   4.3955800E-03  pump_sem93
  4 14 35  pump_sem95   4.3235200E-03  pump_sem95
  4 14 35  pump_sem96   6.5119700E-03  pump_sem96
  4 14 35  pump_sem101   4.3955800E-03  pump_sem101
  4 14 35  pump_sem102   4.1862600E-03  pump_sem102
  1 15 8  pump_sem97   6.5094000E-04  pump_sem97
  1 15 8  pump_sem102   9.1442000E-04  pump_sem102
  4 15 8  pump_sem97   3.8491700E-03  pump_sem97
  4 15 8  pump_sem102   5.4071600E-03  pump_sem102
  5 15 8  pump_sem97   1.1496100E-03  pump_sem97
  5 15 8  pump_sem102   1.6149300E-03  pump_sem102
  4 15 9  pump_sem102   6.8538200E-03  pump_sem102
  5 15 9  pump_sem102   1.0826900E-03  pump_sem102
  4 15 10  pump_sem102   7.0849900E-03  pump_sem102
  5 15 10  pump_sem102   8.5152000E-04  pump_sem102
  4 15 11  pump_sem102   7.9365100E-03  pump_sem102
  4 15 12  pump_sem81   2.9411760E-02  pump_sem81
  4 15 12  pump_sem102   7.9365100E-03  pump_sem102
  4 15 13  pump_sem81   2.9411760E-02  pump_sem81
  1 15 16  pump_sem81   9.5926600E-03  pump_sem81
  1 15 16  pump_sem102   2.5884900E-03  pump_sem102
  3 15 16  pump_sem81   5.5043500E-03  pump_sem81
  3 15 16  pump_sem102   1.4853000E-03  pump_sem102
  4 15 16  pump_sem81   1.4314760E-02  pump_sem81
  4 15 16  pump_sem102   3.8627100E-03  pump_sem102
  1 15 17  pump_sem81   4.4492800E-03  pump_sem81
  1 15 17  pump_sem102   1.2006000E-03  pump_sem102
  3 15 17  pump_sem81   3.9146500E-03  pump_sem81
  3 15 17  pump_sem102   1.0563300E-03  pump_sem102
  4 15 17  pump_sem81   2.1047840E-02  pump_sem81
  4 15 17  pump_sem102   5.6795800E-03  pump_sem102
  1 15 18  pump_sem102   1.4296600E-03  pump_sem102
  3 15 18  pump_sem102   9.4340000E-04  pump_sem102
  4 15 18  pump_sem102   5.5634400E-03  pump_sem102
  1 15 19  pump_sem93   3.0488400E-03  pump_sem93
  1 15 19  pump_sem101   3.0488400E-03  pump_sem101
  1 15 19  pump_sem102   2.9036500E-03  pump_sem102
  4 15 19  pump_sem93   4.3206600E-03  pump_sem93
  4 15 19  pump_sem101   4.3206600E-03  pump_sem101
  4 15 19  pump_sem102   4.1149200E-03  pump_sem102
  5 15 19  pump_sem93   9.6384000E-04  pump_sem93
  5 15 19  pump_sem101   9.6384000E-04  pump_sem101
  5 15 19  pump_sem102   9.1794000E-04  pump_sem102
  1 15 20  pump_sem93   3.4915400E-03  pump_sem93
  1 15 20  pump_sem96   5.1726500E-03  pump_sem96
  1 15 20  pump_sem97   4.7342900E-03  pump_sem97
  1 15 20  pump_sem101   3.4915400E-03  pump_sem101
  1 15 20  pump_sem102   6.6505500E-03  pump_sem102
  4 15 20  pump_sem93   3.7777300E-03  pump_sem93
  4 15 20  pump_sem96   5.5966400E-03  pump_sem96
  4 15 20  pump_sem97   5.1223500E-03  pump_sem97
  4 15 20  pump_sem101   3.7777300E-03  pump_sem101
  4 15 20  pump_sem102   7.1956800E-03  pump_sem102
  5 15 20  pump_sem93   1.0640700E-03  pump_sem93
  5 15 20  pump_sem96   1.5763900E-03  pump_sem96
  5 15 20  pump_sem97   1.4428000E-03  pump_sem97
  5 15 20  pump_sem101   1.0640700E-03  pump_sem101
  5 15 20  pump_sem102   2.0267900E-03  pump_sem102
  1 15 21  pump_sem93   4.3182000E-03  pump_sem93
  1 15 21  pump_sem96   1.2794660E-02  pump_sem96
  1 15 21  pump_sem97   5.8551800E-03  pump_sem97
  1 15 21  pump_sem101   4.3182000E-03  pump_sem101
  1 15 21  pump_sem102   4.1125700E-03  pump_sem102
  4 15 21  pump_sem93   3.1252400E-03  pump_sem93
  4 15 21  pump_sem96   9.2599800E-03  pump_sem96
  4 15 21  pump_sem97   4.2376200E-03  pump_sem97
  4 15 21  pump_sem101   3.1252400E-03  pump_sem101
  4 15 21  pump_sem102   2.9764200E-03  pump_sem102
  5 15 21  pump_sem93   8.8989000E-04  pump_sem93
  5 15 21  pump_sem96   2.6367200E-03  pump_sem96
  5 15 21  pump_sem97   1.2066300E-03  pump_sem97
  5 15 21  pump_sem101   8.8989000E-04  pump_sem101
  5 15 21  pump_sem102   8.4752000E-04  pump_sem102
  1 15 22  pump_sem95   4.0302700E-03  pump_sem95
  1 15 22  pump_sem96   1.2140550E-02  pump_sem96
  4 15 22  pump_sem95   3.2337300E-03  pump_sem95
  4 15 22  pump_sem96   9.7411100E-03  pump_sem96
  5 15 22  pump_sem95   9.3272000E-04  pump_sem95
  5 15 22  pump_sem96   2.8096900E-03  pump_sem96
  1 15 23  pump_sem95   4.0510800E-03  pump_sem95
  1 15 23  pump_sem96   6.1016300E-03  pump_sem96
  4 15 23  pump_sem95   3.2443100E-03  pump_sem95
  4 15 23  pump_sem96   4.8865000E-03  pump_sem96
  5 15 23  pump_sem95   9.0133000E-04  pump_sem95
  5 15 23  pump_sem96   1.3575500E-03  pump_sem96
  1 15 24  pump_sem95   1.7727290E-02  pump_sem95
  1 15 24  pump_sem96   8.9001200E-03  pump_sem96
  4 15 24  pump_sem95   6.8628700E-03  pump_sem95
  4 15 24  pump_sem96   3.4455600E-03  pump_sem96
  1 15 25  pump_sem95   1.7611760E-02  pump_sem95
  4 15 25  pump_sem95   6.9784000E-03  pump_sem95
  1 15 26  pump_sem95   1.1389210E-02  pump_sem95
  4 15 26  pump_sem95   5.0042300E-03  pump_sem95
  1 15 27  pump_sem95   4.6726400E-03  pump_sem95
  4 15 27  pump_sem95   3.5240800E-03  pump_sem95
  1 15 28  pump_sem95   3.9057500E-03  pump_sem95
  4 15 28  pump_sem95   4.2909700E-03  pump_sem95
  1 15 29  pump_sem95   4.9648900E-03  pump_sem95
  4 15 29  pump_sem95   3.2318300E-03  pump_sem95
  1 15 30  pump_sem95   5.0142700E-03  pump_sem95
  4 15 30  pump_sem95   3.1824500E-03  pump_sem95
  1 15 31  pump_sem95   1.0968720E-02  pump_sem95
  4 15 31  pump_sem95   5.4247300E-03  pump_sem95
  1 15 32  pump_sem95   8.6829500E-03  pump_sem95
  1 15 32  pump_sem96   6.5390100E-03  pump_sem96
  4 15 32  pump_sem95   7.7104900E-03  pump_sem95
  4 15 32  pump_sem96   5.8066700E-03  pump_sem96
  1 15 33  pump_sem95   1.0478660E-02  pump_sem95
  1 15 33  pump_sem96   7.8913400E-03  pump_sem96
  1 15 33  pump_sem102   5.0730000E-03  pump_sem102
  4 15 33  pump_sem95   5.9147800E-03  pump_sem95
  4 15 33  pump_sem96   4.4543400E-03  pump_sem96
  4 15 33  pump_sem102   2.8635000E-03  pump_sem102
  1 15 34  pump_sem93   5.2349600E-03  pump_sem93
  1 15 34  pump_sem95   5.1491400E-03  pump_sem95
  1 15 34  pump_sem96   7.7554900E-03  pump_sem96
  1 15 34  pump_sem101   5.2349600E-03  pump_sem101
  1 15 34  pump_sem102   4.9856700E-03  pump_sem102
  4 15 34  pump_sem93   3.0983800E-03  pump_sem93
  4 15 34  pump_sem95   3.0475800E-03  pump_sem95
  4 15 34  pump_sem96   4.5901900E-03  pump_sem96
  4 15 34  pump_sem101   3.0983800E-03  pump_sem101
  4 15 34  pump_sem102   2.9508400E-03  pump_sem102
  1 15 35  pump_sem93   5.9161700E-03  pump_sem93
  1 15 35  pump_sem101   5.9161700E-03  pump_sem101
  1 15 35  pump_sem102   2.8172200E-03  pump_sem102
  3 15 35  pump_sem93   1.9593500E-03  pump_sem93
  3 15 35  pump_sem101   1.9593500E-03  pump_sem101
  3 15 35  pump_sem102   9.3302000E-04  pump_sem102
  4 15 35  pump_sem93   8.7911500E-03  pump_sem93
  4 15 35  pump_sem101   8.7911500E-03  pump_sem101
  4 15 35  pump_sem102   4.1862600E-03  pump_sem102
  1 16 7  pump_sem25   7.3587100E-03  pump_sem25
  1 16 7  pump_sem62   5.1510950E-02  pump_sem62
  1 16 7  pump_sem97   3.2012500E-03  pump_sem97
  5 16 7  pump_sem25   5.6283100E-03  pump_sem25
  5 16 7  pump_sem62   3.9398140E-02  pump_sem62
  5 16 7  pump_sem97   2.4484700E-03  pump_sem97
  1 16 8  pump_sem25   2.0812400E-03  pump_sem25
  1 16 8  pump_sem62   1.4568710E-02  pump_sem62
  1 16 8  pump_sem97   9.0540000E-04  pump_sem97
  1 16 8  pump_sem102   1.2718700E-03  pump_sem102
  4 16 8  pump_sem25   9.3751500E-03  pump_sem25