ptf #
BEGIN options
  BOUNDNAMES
  SAVE_FLOWS
  OBS6  FILEIN  mf6-tv_hist.drn.obs
END options

BEGIN dimensions
  MAXBOUND  520
END dimensions

BEGIN period  1
  1 32 44    2620.00000000  #    drncnd01#  drn01
  1 33 45    2645.50000000  #    drncnd01#  drn01
  1 34 44    2645.20000000  #    drncnd01#  drn01
  1 33 46    2675.40000000  #    drncnd01#  drn01
  1 32 45    2646.70000000  #    drncnd01#  drn01
  1 32 37    2573.20000000  #    drncnd02#  drn02
  1 32 38    2588.10000000  #    drncnd02#  drn02
  1 31 38    2536.00000000  #    drncnd02#  drn02
  1 31 31    2443.60000000  #    drncnd02#  drn02
  1 33 38    2590.70000000  #    drncnd02#  drn02
  1 34 41    2644.00000000  #    drncnd02#  drn02
  1 33 42    2659.10000000  #    drncnd02#  drn02
  1 32 42    2597.70000000  #    drncnd02#  drn02
  1 34 42    2662.60000000  #    drncnd02#  drn02
  1 32 40    2621.70000000  #    drncnd02#  drn02
  1 32 35    2538.40000000  #    drncnd02#  drn02
  1 32 41    2592.40000000  #    drncnd02#  drn02
  1 31 32    2454.10000000  #    drncnd02#  drn02
  1 31 37    2568.40000000  #    drncnd02#  drn02
  1 31 34    2478.10000000  #    drncnd02#  drn02
  1 31 39    2545.30000000  #    drncnd02#  drn02
  1 32 36    2557.20000000  #    drncnd02#  drn02
  1 34 39    2608.80000000  #    drncnd02#  drn02
  1 33 40    2625.50000000  #    drncnd02#  drn02
  1 32 39    2603.60000000  #    drncnd02#  drn02
  1 31 33    2465.10000000  #    drncnd02#  drn02
  1 31 35    2498.60000000  #    drncnd02#  drn02
  1 31 36    2549.30000000  #    drncnd02#  drn02
  1 33 39    2607.50000000  #    drncnd02#  drn02
  1 34 40    2627.40000000  #    drncnd02#  drn02
  1 33 41    2642.90000000  #    drncnd02#  drn02
  1 34 43    2679.30000000  #    drncnd02#  drn02
  1 31 30    2438.20000000  #    drncnd02#  drn02
  1 35 43    2680.10000000  #    drncnd02#  drn02
  1 33 43    2622.10000000  #    drncnd02#  drn02
  1 33 37    2572.40000000  #    drncnd02#  drn02
  1 35 42    2668.30000000  #    drncnd02#  drn02
  1 32 34    2521.60000000  #    drncnd02#  drn02
  1 32 33    2507.70000000  #    drncnd02#  drn02
  1 31 29    2428.30000000  #    drncnd02#  drn02
  1 34 38    2589.90000000  #    drncnd02#  drn02
  1 31 28    2412.80000000  #    drncnd02#  drn02
  1 28 39    2574.90000000  #    drncnd02#  drn02
  1 35 44    2702.00000000  #    drncnd02#  drn02
  1 35 39    2610.50000000  #    drncnd02#  drn02
  1 30 26    2383.70000000  #    drncnd03#  drn03
  1 28 19    2306.30000000  #    drncnd03#  drn03
  1 29 21    2328.00000000  #    drncnd03#  drn03
  1 28 20    2331.70000000  #    drncnd03#  drn03
  1 29 20    2309.90000000  #    drncnd03#  drn03
  1 27 20    2359.40000000  #    drncnd03#  drn03
  1 27 19    2341.80000000  #    drncnd03#  drn03
  1 26 15    2268.60000000  #    drncnd03#  drn03
  1 28 21    2361.80000000  #    drncnd03#  drn03
  1 27 18    2321.70000000  #    drncnd03#  drn03
  1 30 25    2373.20000000  #    drncnd03#  drn03
  1 26 16    2312.60000000  #    drncnd03#  drn03
  1 26 14    2253.60000000  #    drncnd03#  drn03
  1 26 20    2399.10000000  #    drncnd03#  drn03
  1 26 21    2426.10000000  #    drncnd03#  drn03
  1 27 21    2384.10000000  #    drncnd03#  drn03
  1 29 27    2392.90000000  #    drncnd03#  drn03
  1 28 25    2379.10000000  #    drncnd03#  drn03
  1 25 17    2351.70000000  #    drncnd03#  drn03
  1 27 25    2409.40000000  #    drncnd03#  drn03
  1 27 26    2412.20000000  #    drncnd03#  drn03
  1 26 18    2342.10000000  #    drncnd04#  drn04
  1 25 20    2397.60000000  #    drncnd04#  drn04
  1 25 19    2375.80000000  #    drncnd04#  drn04
  1 26 17    2321.40000000  #    drncnd04#  drn04
  1 25 18    2359.90000000  #    drncnd04#  drn04
  1 26 19    2358.60000000  #    drncnd04#  drn04
  1 24 19    2425.10000000  #    drncnd04#  drn04
  1 24 20    2403.80000000  #    drncnd04#  drn04
  1 25 21    2428.40000000  #    drncnd04#  drn04
  1 32 21    2337.80000000  #    drncnd05#  drn05
  1 32 20    2328.10000000  #    drncnd05#  drn05
  1 30 13    2394.60000000  #    drncnd85#  drn05
  1 33 21    2392.80000000  #    drncnd05#  drn05
  1 29 13    2265.60000000  #    drncnd85#  drn05
  1 28 13    2254.70000000  #    drncnd05#  drn05
  1 30 17    2293.40000000  #    drncnd05#  drn05
  1 33 19    2401.30000000  #    drncnd85#  drn05
  1 30 16    2287.70000000  #    drncnd05#  drn05
  1 32 17    2357.00000000  #    drncnd05#  drn05
  1 32 18    2345.80000000  #    drncnd05#  drn05
  1 32 15    2448.30000000  #    drncnd85#  drn05
  1 32 16    2391.40000000  #    drncnd85#  drn05
  1 30 15    2278.70000000  #    drncnd85#  drn05
  1 32 19    2323.40000000  #    drncnd05#  drn05
  1 28 14    2258.80000000  #    drncnd05#  drn05
  1 29 16    2283.00000000  #    drncnd05#  drn05
  1 31 15    2398.00000000  #    drncnd85#  drn05
  1 33 20    2399.20000000  #    drncnd85#  drn05
  1 33 17    2459.80000000  #    drncnd85#  drn05
  1 34 17    2473.40000000  #    drncnd85#  drn05
  1 34 16    2471.20000000  #    drncnd85#  drn05
  1 30 14    2370.00000000  #    drncnd85#  drn05
  1 29 14    2266.40000000  #    drncnd05#  drn05
  1 31 18    2308.10000000  #    drncnd05#  drn05
  1 29 15    2273.20000000  #    drncnd05#  drn05
  1 31 17    2301.50000000  #    drncnd05#  drn05
  1 31 16    2299.30000000  #    drncnd05#  drn05
  1 32 14    2458.00000000  #    drncnd85#  drn05
  1 33 22    2380.80000000  #    drncnd05#  drn05
  1 33 18    2452.50000000  #    drncnd85#  drn05
  1 30 18    2302.60000000  #    drncnd05#  drn05
  1 31 14    2402.80000000  #    drncnd85#  drn05
  1 28 15    2267.70000000  #    drncnd05#  drn05
  1 33 15    2472.90000000  #    drncnd85#  drn05
  1 34 18    2468.70000000  #    drncnd85#  drn05
  1 34 20    2461.40000000  #    drncnd85#  drn05
  1 34 19    2486.60000000  #    drncnd85#  drn05
  1 33 16    2429.80000000  #    drncnd85#  drn05
  1 31 13    2408.00000000  #    drncnd85#  drn05
  1 31 19    2310.30000000  #    drncnd05#  drn05
  1 29 17    2289.20000000  #    drncnd05#  drn05
  1 31 20    2323.60000000  #    drncnd05#  drn05
  1 35 18    2474.00000000  #    drncnd85#  drn05
  1 34 15    2503.40000000  #    drncnd85#  drn05
  1 33 14    2487.60000000  #    drncnd85#  drn05
  1 34 21    2435.80000000  #    drncnd85#  drn05
  1 28 16    2278.10000000  #    drncnd05#  drn05
  1 30 12    2398.50000000  #    drncnd85#  drn05
  1 32 22    2359.70000000  #    drncnd05#  drn05
  1 34 23    2403.90000000  #    drncnd05#  drn05
  1 35 23    2419.20000000  #    drncnd05#  drn05
  1 34 22    2407.90000000  #    drncnd05#  drn05
  1 35 17    2490.40000000  #    drncnd85#  drn05
  1 29 12    2385.30000000  #    drncnd85#  drn05
  1 31 21    2333.20000000  #    drncnd05#  drn05
  1 28 12    2253.10000000  #    drncnd85#  drn05
  1 32 13    2448.10000000  #    drncnd85#  drn05
  1 35 19    2468.90000000  #    drncnd85#  drn05
  1 27 12    2243.00000000  #    drncnd05#  drn05
  1 33 23    2392.80000000  #    drncnd05#  drn05
  1 31 12    2415.30000000  #    drncnd85#  drn05
  1 35 16    2499.40000000  #    drncnd85#  drn05
  1 29 40    2552.10000000  #    drncnd06#  drn06
  1 30 42    2583.20000000  #    drncnd06#  drn06
  1 29 41    2570.30000000  #    drncnd06#  drn06
  1 29 39    2541.90000000  #    drncnd06#  drn06
  1 30 41    2568.10000000  #    drncnd06#  drn06
  1 31 43    2601.60000000  #    drncnd06#  drn06
  1 30 43    2599.00000000  #    drncnd06#  drn06
  1 31 44    2622.90000000  #    drncnd06#  drn06
  1 29 42    2600.40000000  #    drncnd06#  drn06
  1 32 29    2444.00000000  #    drncnd07#  drn07
  1 36 37    2599.80000000  #    drncnd07#  drn07
  1 35 37    2582.10000000  #    drncnd07#  drn07
  1 33 31    2484.30000000  #    drncnd07#  drn07
  1 34 35    2544.10000000  #    drncnd07#  drn07
  1 35 36    2565.40000000  #    drncnd07#  drn07
  1 34 33    2512.20000000  #    drncnd07#  drn07
  1 34 34    2529.10000000  #    drncnd07#  drn07
  1 33 33    2507.40000000  #    drncnd07#  drn07
  1 34 36    2558.00000000  #    drncnd07#  drn07
  1 33 32    2493.10000000  #    drncnd07#  drn07
  1 35 38    2594.20000000  #    drncnd07#  drn07
  1 33 30    2466.10000000  #    drncnd07#  drn07
  1 33 34    2521.20000000  #    drncnd07#  drn07
  1 34 37    2568.90000000  #    drncnd07#  drn07
  1 32 30    2461.90000000  #    drncnd07#  drn07
  1 35 35    2549.00000000  #    drncnd07#  drn07
  1 34 32    2497.80000000  #    drncnd07#  drn07
  1 32 31    2478.50000000  #    drncnd07#  drn07
  1 33 35    2535.10000000  #    drncnd07#  drn07
  1 34 31    2479.60000000  #    drncnd07#  drn07
  1 33 29    2450.00000000  #    drncnd07#  drn07
  1 32 32    2492.00000000  #    drncnd07#  drn07
  1 32 28    2434.60000000  #    drncnd07#  drn07
  1 33 36    2548.70000000  #    drncnd07#  drn07
  1 36 36    2578.10000000  #    drncnd07#  drn07
  1 28 23    2358.80000000  #    drncnd08#  drn08
  1 27 22    2387.60000000  #    drncnd08#  drn08
  1 28 24    2364.70000000  #    drncnd08#  drn08
  1 27 23    2390.10000000  #    drncnd08#  drn08
  1 27 24    2403.10000000  #    drncnd08#  drn08
  1 28 22    2367.60000000  #    drncnd08#  drn08
  1 26 22    2408.00000000  #    drncnd08#  drn08
  1 26 23    2424.40000000  #    drncnd08#  drn08
  1 40 29    2498.20000000  #    drncnd89#  drn09
  1 39 29    2477.40000000  #    drncnd89#  drn09
  1 39 28    2474.40000000  #    drncnd89#  drn09
  1 39 27    2471.10000000  #    drncnd89#  drn09
  1 38 29    2472.10000000  #    drncnd89#  drn09
  1 37 24    2430.80000000  #    drncnd09#  drn09
  1 38 27    2459.60000000  #    drncnd89#  drn09
  1 36 27    2439.50000000  #    drncnd09#  drn09
  1 38 28    2468.50000000  #    drncnd89#  drn09
  1 35 25    2415.60000000  #    drncnd09#  drn09
  1 37 25    2433.60000000  #    drncnd09#  drn09
  1 36 25    2428.80000000  #    drncnd09#  drn09
  1 36 24    2425.40000000  #    drncnd09#  drn09
  1 33 24    2387.50000000  #    drncnd09#  drn09
  1 39 30    2485.10000000  #    drncnd89#  drn09
  1 36 26    2429.70000000  #    drncnd09#  drn09
  1 37 27    2448.50000000  #    drncnd09#  drn09
  1 34 24    2396.90000000  #    drncnd09#  drn09
  1 37 26    2443.60000000  #    drncnd89#  drn09
  1 35 24    2409.20000000  #    drncnd09#  drn09
  1 40 28    2492.50000000  #    drncnd89#  drn09
  1 37 28    2458.40000000  #    drncnd89#  drn09
  1 38 26    2449.10000000  #    drncnd89#  drn09
  1 35 26    2422.90000000  #    drncnd09#  drn09
  1 40 30    2500.60000000  #    drncnd89#  drn09
  1 32 23    2368.90000000  #    drncnd09#  drn09
  1 34 25    2408.00000000  #    drncnd09#  drn09
  1 39 31    2483.50000000  #    drncnd89#  drn09
  1 38 24    2449.00000000  #    drncnd89#  drn09
  1 38 25    2457.00000000  #    drncnd89#  drn09
  1 31 22    2343.90000000  #    drncnd09#  drn09
  1 38 30    2474.20000000  #    drncnd89#  drn09
  1 32 24    2387.00000000  #    drncnd09#  drn09
  1 33 25    2397.80000000  #    drncnd09#  drn09
  1 31 23    2367.00000000  #    drncnd09#  drn09
  1 35 27    2434.10000000  #    drncnd09#  drn09
  1 37 29    2463.30000000  #    drncnd89#  drn09
  1 39 26    2472.10000000  #    drncnd89#  drn09
  1 36 28    2447.10000000  #    drncnd09#  drn09
  1 40 27    2520.00000000  #    drncnd89#  drn09
  1 41 28    2523.90000000  #    drncnd89#  drn09
  1 41 33    2573.30000000  #    drncnd89#  drn09
  1 43 27    2538.30000000  #    drncnd10#  drn10
  1 42 25    2530.10000000  #    drncnd10#  drn10
  1 43 26    2541.20000000  #    drncnd10#  drn10
  1 42 26    2525.50000000  #    drncnd10#  drn10
  1 41 24    2521.90000000  #    drncnd10#  drn10
  1 35 22    2443.70000000  #    drncnd10#  drn10
  1 44 27    2556.70000000  #    drncnd10#  drn10
  1 36 23    2455.40000000  #    drncnd10#  drn10
  1 36 22    2526.00000000  #    drncnd10#  drn10
  1 37 23    2489.70000000  #    drncnd10#  drn10
  1 41 25    2509.80000000  #    drncnd10#  drn10
  1 42 24    2614.90000000  #    drncnd10#  drn10
  1 43 28    2561.30000000  #    drncnd10#  drn10
  1 37 22    2518.50000000  #    drncnd10#  drn10
  1 35 29    2452.90000000  #    drncnd11#  drn11
  1 35 30    2474.00000000  #    drncnd11#  drn11
  1 33 26    2423.10000000  #    drncnd11#  drn11
  1 34 28    2441.00000000  #    drncnd11#  drn11
  1 32 26    2411.40000000  #    drncnd11#  drn11
  1 33 27    2428.00000000  #    drncnd11#  drn11
  1 35 31    2485.30000000  #    drncnd11#  drn11
  1 34 27    2437.80000000  #    drncnd11#  drn11
  1 34 29    2452.60000000  #    drncnd11#  drn11
  1 31 25    2394.30000000  #    drncnd11#  drn11
  1 36 29    2468.00000000  #    drncnd11#  drn11
  1 32 27    2425.00000000  #    drncnd11#  drn11
  1 35 28    2448.00000000  #    drncnd11#  drn11
  1 32 25    2407.40000000  #    drncnd11#  drn11
  1 37 30    2488.40000000  #    drncnd11#  drn11
  1 39 33    2555.50000000  #    drncnd11#  drn11
  1 35 32    2490.80000000  #    drncnd11#  drn11
  1 31 24    2390.60000000  #    drncnd11#  drn11
  1 38 32    2534.10000000  #    drncnd11#  drn11
  1 36 30    2519.20000000  #    drncnd11#  drn11
  1 35 33    2509.40000000  #    drncnd11#  drn11
  1 31 26    2405.10000000  #    drncnd11#  drn11
  1 36 35    2556.20000000  #    drncnd11#  drn11
  1 33 28    2436.20000000  #    drncnd11#  drn11
  1 38 31    2488.20000000  #    drncnd11#  drn11
  1 37 31    2501.10000000  #    drncnd11#  drn11
  1 34 30    2468.50000000  #    drncnd11#  drn11
  1 40 34    2583.50000000  #    drncnd11#  drn11
  1 34 26    2419.30000000  #    drncnd11#  drn11
  1 36 34    2539.90000000  #    drncnd11#  drn11
  1 39 32    2510.30000000  #    drncnd11#  drn11
  1 35 34    2528.10000000  #    drncnd11#  drn11
  1 31 27    2407.00000000  #    drncnd11#  drn11
  1 30 24    2365.10000000  #    drncnd11#  drn11
  1 30 23    2354.10000000  #    drncnd11#  drn11
  1 40 33    2552.70000000  #    drncnd11#  drn11
  1 36 31    2507.80000000  #    drncnd11#  drn11
  1 39 34    2589.80000000  #    drncnd11#  drn11
  1 36 33    2527.00000000  #    drncnd11#  drn11
  1 36 32    2508.50000000  #    drncnd11#  drn11
  1 38 33    2556.00000000  #    drncnd11#  drn11
  1 28 33    2468.30000000  #    drncnd12#  drn12
  1 29 34    2475.20000000  #    drncnd12#  drn12
  1 28 35    2493.60000000  #    drncnd12#  drn12
  1 28 34    2478.20000000  #    drncnd12#  drn12
  1 28 36    2508.00000000  #    drncnd12#  drn12
  1 28 27    2394.20000000  #    drncnd12#  drn12
  1 28 28    2404.60000000  #    drncnd12#  drn12
  1 28 37    2531.10000000  #    drncnd12#  drn12
  1 29 32    2453.30000000  #    drncnd12#  drn12
  1 28 32    2452.80000000  #    drncnd12#  drn12
  1 28 30    2429.70000000  #    drncnd12#  drn12
  1 29 33    2463.20000000  #    drncnd12#  drn12
  1 28 26    2384.50000000  #    drncnd12#  drn12
  1 28 31    2441.80000000  #    drncnd12#  drn12
  1 29 31    2438.90000000  #    drncnd12#  drn12
  1 28 29    2418.40000000  #    drncnd12#  drn12
  1 29 30    2428.90000000  #    drncnd12#  drn12
  1 29 28    2404.40000000  #    drncnd12#  drn12
  1 29 29    2417.60000000  #    drncnd12#  drn12
  1 27 35    2526.80000000  #    drncnd12#  drn12
  1 27 34    2519.30000000  #    drncnd12#  drn12
  1 27 27    2402.40000000  #    drncnd12#  drn12
  1 27 36    2530.30000000  #    drncnd12#  drn12
  1 28 38    2554.70000000  #    drncnd12#  drn12
  1 27 33    2520.70000000  #    drncnd12#  drn12
  1 27 28    2409.40000000  #    drncnd12#  drn12
  1 18 29    2328.10000000  #    drncnd13#  drn13
  1 7 13    2163.10000000  #    drncnd13#  drn13
  1 8 13    2185.80000000  #    drncnd13#  drn13
  1 8 15    2176.80000000  #    drncnd13#  drn13
  1 14 21    2242.40000000  #    drncnd13#  drn13
  1 15 29    2393.40000000  #    drncnd13#  drn13
  1 19 29    2326.60000000  #    drncnd13#  drn13
  1 16 28    2308.10000000  #    drncnd13#  drn13
  1 8 12    2201.40000000  #    drncnd13#  drn13
  1 9 15    2199.70000000  #    drncnd13#  drn13
  1 17 32    2348.10000000  #    drncnd13#  drn13
  1 16 24    2269.30000000  #    drncnd13#  drn13
  1 15 22    2257.40000000  #    drncnd13#  drn13
  1 13 20    2230.20000000  #    drncnd13#  drn13
  1 8 14    2178.80000000  #    drncnd13#  drn13
  1 19 30    2335.00000000  #    drncnd13#  drn13
  1 17 25    2281.60000000  #    drncnd13#  drn13
  1 18 30    2337.60000000  #    drncnd13#  drn13
  1 15 28    2378.30000000  #    drncnd13#  drn13
  1 14 22    2243.90000000  #    drncnd13#  drn13
  1 12 19    2222.00000000  #    drncnd13#  drn13
  1 10 13    2242.90000000  #    drncnd13#  drn13
  1 16 23    2270.50000000  #    drncnd13#  drn13
  1 10 12    2250.80000000  #    drncnd13#  drn13
  1 18 31    2346.80000000  #    drncnd13#  drn13
  1 12 20    2223.00000000  #    drncnd13#  drn13
  1 7 12    2173.00000000  #    drncnd13#  drn13
  1 12 18    2248.20000000  #    drncnd13#  drn13
  1 16 29    2323.40000000  #    drncnd13#  drn13
  1 9 13    2213.80000000  #    drncnd13#  drn13
  1 9 16    2188.20000000  #    drncnd13#  drn13
  1 15 31    2412.40000000  #    drncnd13#  drn13
  1 13 23    2256.10000000  #    drncnd13#  drn13
  1 17 31    2346.10000000  #    drncnd13#  drn13
  1 11 16    2251.40000000  #    drncnd13#  drn13
  1 17 26    2293.00000000  #    drncnd13#  drn13
  1 18 32    2356.30000000  #    drncnd13#  drn13
  1 16 30    2333.00000000  #    drncnd13#  drn13
  1 15 30    2407.60000000  #    drncnd13#  drn13
  1 15 23    2258.10000000  #    drncnd13#  drn13
  1 18 27    2303.10000000  #    drncnd13#  drn13
  1 15 27    2368.10000000  #    drncnd13#  drn13
  1 15 26    2285.10000000  #    drncnd13#  drn13
  1 11 17    2249.30000000  #    drncnd13#  drn13
  1 10 14    2233.80000000  #    drncnd13#  drn13
  1 9 14    2209.70000000  #    drncnd13#  drn13
  1 10 17    2197.70000000  #    drncnd13#  drn13
  1 9 12    2221.10000000  #    drncnd13#  drn13
  1 15 32    2376.00000000  #    drncnd13#  drn13
  1 14 25    2336.50000000  #    drncnd13#  drn13
  1 10 16    2223.00000000  #    drncnd13#  drn13
  1 18 28    2313.00000000  #    drncnd13#  drn13
  1 14 26    2345.10000000  #    drncnd13#  drn13
  1 10 15    2230.60000000  #    drncnd13#  drn13
  1 11 18    2213.00000000  #    drncnd13#  drn13
  1 12 17    2278.50000000  #    drncnd13#  drn13
  1 11 15    2261.50000000  #    drncnd13#  drn13
  1 12 22    2294.10000000  #    drncnd13#  drn13
  1 10 11    2250.90000000  #    drncnd13#  drn13
  1 16 33    2370.10000000  #    drncnd13#  drn13
  1 19 28    2317.30000000  #    drncnd13#  drn13
  1 13 24    2323.30000000  #    drncnd13#  drn13
  1 14 27    2376.80000000  #    drncnd13#  drn13
  1 19 31    2342.90000000  #    drncnd13#  drn13
  1 13 19    2231.20000000  #    drncnd13#  drn13
  1 5 11    2139.30000000  #    drncnd13#  drn13
  1 9 11    2225.70000000  #    drncnd13#  drn13
  1 8 11    2208.30000000  #    drncnd13#  drn13
  1 18 26    2302.70000000  #    drncnd13#  drn13
  1 14 33    2383.20000000  #    drncnd13#  drn13
  1 15 21    2255.90000000  #    drncnd13#  drn13
  1 17 24    2285.80000000  #    drncnd13#  drn13
  1 7 11    2190.30000000  #    drncnd13#  drn13
  1 14 20    2240.10000000  #    drncnd13#  drn13
  1 16 22    2270.90000000  #    drncnd13#  drn13
  1 15 34    2387.50000000  #    drncnd13#  drn13
  1 12 16    2294.50000000  #    drncnd13#  drn13
  1 14 32    2455.20000000  #    drncnd13#  drn13
  1 14 28    2398.30000000  #    drncnd13#  drn13
  1 9 18    2193.10000000  #    drncnd13#  drn13
  1 11 14    2273.10000000  #    drncnd13#  drn13
  1 13 25    2348.10000000  #    drncnd13#  drn13
  1 12 23    2327.00000000  #    drncnd13#  drn13
  1 6 14    2163.10000000  #    drncnd13#  drn13
  1 14 31    2449.80000000  #    drncnd13#  drn13
  1 8 17    2183.40000000  #    drncnd13#  drn13
  1 14 29    2424.20000000  #    drncnd13#  drn13
  1 10 19    2203.00000000  #    drncnd13#  drn13
  1 5 12    2148.30000000  #    drncnd13#  drn13
  1 14 30    2435.50000000  #    drncnd13#  drn13
  1 17 33    2363.10000000  #    drncnd13#  drn13
  1 18 25    2330.80000000  #    drncnd13#  drn13
  1 19 32    2362.60000000  #    drncnd13#  drn13
  1 19 27    2311.70000000  #    drncnd13#  drn13
  1 16 34    2396.10000000  #    drncnd13#  drn13
  1 11 13    2284.40000000  #    drncnd13#  drn13
  1 17 23    2286.10000000  #    drncnd13#  drn13
  1 13 26    2379.60000000  #    drncnd13#  drn13
  1 20 30    2350.30000000  #    drncnd13#  drn13
  1 13 18    2279.30000000  #    drncnd13#  drn13
  1 14 19    2294.10000000  #    drncnd13#  drn13
  1 7 16    2178.20000000  #    drncnd13#  drn13
  1 12 15    2307.00000000  #    drncnd13#  drn13
  1 11 12    2283.70000000  #    drncnd13#  drn13
  1 18 33    2404.20000000  #    drncnd13#  drn13
  1 16 21    2271.80000000  #    drncnd13#  drn13
  1 20 29    2332.90000000  #    drncnd13#  drn13
  1 24 13    2314.40000000  #    drncnd14#  drn14
  1 25 13    2259.90000000  #    drncnd14#  drn14
  1 23 10    2214.80000000  #    drncnd14#  drn14
  1 22 10    2274.00000000  #    drncnd14#  drn14
  1 24 12    2283.00000000  #    drncnd14#  drn14
  1 22 11    2298.70000000  #    drncnd14#  drn14
  1 25 14    2278.40000000  #    drncnd14#  drn14
  1 23 11    2275.80000000  #    drncnd14#  drn14
  1 24 11    2224.30000000  #    drncnd14#  drn14
  1 25 12    2233.20000000  #    drncnd14#  drn14
  1 22 9    2228.40000000  #    drncnd14#  drn14
  1 23 12    2307.10000000  #    drncnd14#  drn14
  1 24 14    2319.80000000  #    drncnd14#  drn14
  1 22 8    2190.10000000  #    drncnd14#  drn14
  1 24 16    2322.50000000  #    drncnd14#  drn14
  1 23 9    2200.80000000  #    drncnd14#  drn14
  1 21 9    2276.20000000  #    drncnd14#  drn14
  1 24 15    2317.20000000  #    drncnd14#  drn14
  1 21 8    2228.70000000  #    drncnd14#  drn14
  1 25 15    2299.40000000  #    drncnd14#  drn14
  1 21 10    2318.50000000  #    drncnd14#  drn14
  1 25 11    2227.90000000  #    drncnd14#  drn14
  1 25 16    2332.30000000  #    drncnd14#  drn14
  1 24 17    2342.70000000  #    drncnd14#  drn14
  1 23 13    2342.10000000  #    drncnd14#  drn14
  1 22 12    2323.40000000  #    drncnd14#  drn14
  1 21 11    2346.40000000  #    drncnd14#  drn14
  1 28 5    2285.80000000  #    drncnd15#  drn15
  1 27 5    2220.70000000  #    drncnd15#  drn15
  1 29 5    2196.10000000  #    drncnd15#  drn15
  1 35 12    2230.30000000  #    drncnd15#  drn15
  1 28 4    2253.30000000  #    drncnd15#  drn15
  1 32 10    2256.10000000  #    drncnd15#  drn15
  1 33 10    2257.70000000  #    drncnd15#  drn15
  1 27 6    2313.70000000  #    drncnd15#  drn15
  1 34 11    2241.10000000  #    drncnd15#  drn15
  1 28 8    2278.10000000  #    drncnd15#  drn15
  1 28 6    2259.50000000  #    drncnd15#  drn15
  1 29 3    2231.20000000  #    drncnd15#  drn15
  1 27 4    2217.60000000  #    drncnd15#  drn15
  1 32 9    2217.10000000  #    drncnd15#  drn15
  1 29 4    2197.40000000  #    drncnd15#  drn15
  1 29 6    2223.00000000  #    drncnd15#  drn15
  1 28 7    2258.50000000  #    drncnd15#  drn15
  1 27 7    2285.30000000  #    drncnd15#  drn15
  1 30 7    2213.60000000  #    drncnd15#  drn15
  1 28 3    2207.40000000  #    drncnd15#  drn15
  1 30 8    2278.90000000  #    drncnd15#  drn15
  1 29 8    2287.00000000  #    drncnd15#  drn15
  1 29 7    2258.90000000  #    drncnd15#  drn15
  1 31 9    2217.30000000  #    drncnd15#  drn15
  1 31 10    2270.20000000  #    drncnd15#  drn15
  1 30 9    2387.80000000  #    drncnd15#  drn15
  1 27 8    2290.60000000  #    drncnd15#  drn15
  1 27 3    2177.30000000  #    drncnd15#  drn15
  1 34 12    2345.40000000  #    drncnd15#  drn15
  1 29 9    2313.30000000  #    drncnd15#  drn15
  1 28 9    2315.00000000  #    drncnd15#  drn15
  1 26 5    2188.20000000  #    drncnd15#  drn15
  1 33 11    2267.10000000  #    drncnd15#  drn15
  1 35 13    2300.70000000  #    drncnd15#  drn15
  1 30 10    2410.70000000  #    drncnd15#  drn15
  1 27 9    2360.20000000  #    drncnd15#  drn15
  1 32 11    2300.20000000  #    drncnd15#  drn15
  1 34 13    2375.00000000  #    drncnd15#  drn15
  1 20 6    2175.60000000  #    drncnd16#  drn16
  1 18 8    2231.20000000  #    drncnd16#  drn16
  1 18 9    2271.80000000  #    drncnd16#  drn16
  1 20 7    2198.00000000  #    drncnd16#  drn16
  1 20 8    2253.80000000  #    drncnd16#  drn16
  1 17 8    2228.30000000  #    drncnd16#  drn16
  1 19 8    2262.20000000  #    drncnd16#  drn16
  1 16 9    2249.40000000  #    drncnd16#  drn16
  1 19 7    2192.20000000  #    drncnd16#  drn16
  1 18 7    2158.70000000  #    drncnd16#  drn16
  1 17 9    2256.60000000  #    drncnd16#  drn16
  1 19 9    2325.70000000  #    drncnd16#  drn16
  1 21 7    2183.00000000  #    drncnd16#  drn16
  1 15 9    2239.00000000  #    drncnd16#  drn16
  1 16 8    2176.90000000  #    drncnd16#  drn16
  1 20 9    2339.50000000  #    drncnd16#  drn16
  1 8 10    2144.90000000  #    drncnd17#  drn17
  1 10 9    2138.70000000  #    drncnd17#  drn17
  1 9 10    2132.80000000  #    drncnd17#  drn17
  1 7 10    2128.40000000  #    drncnd17#  drn17
  1 6 10    2138.10000000  #    drncnd17#  drn17
  1 10 10    2137.70000000  #    drncnd17#  drn17
  1 11 9    2143.00000000  #    drncnd17#  drn17
  1 24 6    2181.50000000  #    drncnd18#  drn18
  1 24 7    2185.80000000  #    drncnd18#  drn18
  1 27 10    2306.40000000  #    drncnd18#  drn18
  1 25 7    2187.10000000  #    drncnd18#  drn18
  1 28 11    2353.20000000  #    drncnd18#  drn18
  1 29 11    2394.50000000  #    drncnd18#  drn18
  1 26 9    2252.60000000  #    drncnd18#  drn18
  1 25 8    2226.90000000  #    drncnd18#  drn18
  1 25 9    2208.70000000  #    drncnd18#  drn18
  1 27 11    2238.10000000  #    drncnd18#  drn18
  1 28 10    2397.90000000  #    drncnd18#  drn18
  1 29 10    2407.40000000  #    drncnd18#  drn18
  1 30 11    2405.40000000  #    drncnd18#  drn18
  1 26 10    2228.30000000  #    drncnd18#  drn18
  1 25 6    2187.20000000  #    drncnd18#  drn18
  1 26 8    2241.40000000  #    drncnd18#  drn18
  1 26 6    2188.10000000  #    drncnd18#  drn18
  1 23 6    2178.30000000  #    drncnd18#  drn18
  1 26 7    2231.50000000  #    drncnd18#  drn18
  1 23 7    2188.00000000  #    drncnd18#  drn18
  1 31 11    2415.00000000  #    drncnd18#  drn18
END period  1

