ptf #
BEGIN options
  auxiliary  multiplier
  AUXMULTNAME  multiplier
  BOUNDNAMES
  SAVE_FLOWS
  TS6  FILEIN  mf6-tv_hist-pumping_rates-irr.ts
END options

BEGIN dimensions
  MAXBOUND  5657
END dimensions

BEGIN period  1
  1 5 8  pump_irr97  #   97c268l1i#  pump_irr97
  5 5 8  pump_irr97  #   97c268l5i#  pump_irr97
  1 5 9  pump_irr94  #   94c269l1i#  pump_irr94
  1 5 9  pump_irr97  #   97c269l1i#  pump_irr97
  5 5 9  pump_irr94  #   94c269l5i#  pump_irr94
  5 5 9  pump_irr97  #   97c269l5i#  pump_irr97
  1 5 10  pump_irr94  #   94c270l1i#  pump_irr94
  1 5 10  pump_irr97  #   97c270l1i#  pump_irr97
  5 5 10  pump_irr94  #   94c270l5i#  pump_irr94
  5 5 10  pump_irr97  #   97c270l5i#  pump_irr97
  1 5 11  pump_irr94  #   94c271l1i#  pump_irr94
  5 5 11  pump_irr94  #   94c271l5i#  pump_irr94
  1 5 12  pump_irr94  #   94c272l1i#  pump_irr94
  5 5 12  pump_irr94  #   94c272l5i#  pump_irr94
  1 5 13  pump_irr94  #   94c273l1i#  pump_irr94
  1 6 9  pump_irr97  #   97c334l1i#  pump_irr97
  5 6 9  pump_irr97  #   97c334l5i#  pump_irr97
  1 6 10  pump_irr94  #   94c335l1i#  pump_irr94
  1 6 10  pump_irr97  #   97c335l1i#  pump_irr97
  5 6 10  pump_irr94  #   94c335l5i#  pump_irr94
  5 6 10  pump_irr97  #   97c335l5i#  pump_irr97
  1 6 11  pump_irr94  #   94c336l1i#  pump_irr94
  1 6 11  pump_irr97  #   97c336l1i#  pump_irr97
  5 6 11  pump_irr94  #   94c336l5i#  pump_irr94
  5 6 11  pump_irr97  #   97c336l5i#  pump_irr97
  1 6 12  pump_irr94  #   94c337l1i#  pump_irr94
  1 6 12  pump_irr97  #   97c337l1i#  pump_irr97
  5 6 12  pump_irr94  #   94c337l5i#  pump_irr94
  5 6 12  pump_irr97  #   97c337l5i#  pump_irr97
  1 6 13  pump_irr94  #   94c338l1i#  pump_irr94
  1 6 13  pump_irr97  #   97c338l1i#  pump_irr97
  5 6 13  pump_irr94  #   94c338l5i#  pump_irr94
  5 6 13  pump_irr97  #   97c338l5i#  pump_irr97
  1 6 14  pump_irr35  #   35c339l1i#  pump_irr35
  1 6 14  pump_irr94  #   94c339l1i#  pump_irr94
  1 6 14  pump_irr97  #   97c339l1i#  pump_irr97
  5 6 14  pump_irr35  #   35c339l5i#  pump_irr35
  5 6 14  pump_irr94  #   94c339l5i#  pump_irr94
  5 6 14  pump_irr97  #   97c339l5i#  pump_irr97
  1 7 9  pump_irr97  #   97c399l1i#  pump_irr97
  5 7 9  pump_irr97  #   97c399l5i#  pump_irr97
  1 7 10  pump_irr97  #   97c400l1i#  pump_irr97
  5 7 10  pump_irr97  #   97c400l5i#  pump_irr97
  1 7 11  pump_irr97  #   97c401l1i#  pump_irr97
  5 7 11  pump_irr97  #   97c401l5i#  pump_irr97
  1 7 12  pump_irr94  #   94c402l1i#  pump_irr94
  1 7 12  pump_irr97  #   97c402l1i#  pump_irr97
  5 7 12  pump_irr94  #   94c402l5i#  pump_irr94
  5 7 12  pump_irr97  #   97c402l5i#  pump_irr97
  1 7 13  pump_irr94  #   94c403l1i#  pump_irr94
  1 7 13  pump_irr97  #   97c403l1i#  pump_irr97
  5 7 13  pump_irr94  #   94c403l5i#  pump_irr94
  5 7 13  pump_irr97  #   97c403l5i#  pump_irr97
  1 7 14  pump_irr94  #   94c404l1i#  pump_irr94
  1 7 14  pump_irr97  #   97c404l1i#  pump_irr97
  5 7 14  pump_irr94  #   94c404l5i#  pump_irr94
  5 7 14  pump_irr97  #   97c404l5i#  pump_irr97
  1 7 15  pump_irr94  #   94c405l1i#  pump_irr94
  1 7 15  pump_irr95  #   95c405l1i#  pump_irr95
  1 7 15  pump_irr97  #   97c405l1i#  pump_irr97
  5 7 15  pump_irr94  #   94c405l5i#  pump_irr94
  5 7 15  pump_irr95  #   95c405l5i#  pump_irr95
  5 7 15  pump_irr97  #   97c405l5i#  pump_irr97
  1 7 16  pump_irr94  #   94c406l1i#  pump_irr94
  1 7 16  pump_irr95  #   95c406l1i#  pump_irr95
  5 7 16  pump_irr94  #   94c406l5i#  pump_irr94
  5 7 16  pump_irr95  #   95c406l5i#  pump_irr95
  1 8 9  pump_irr97  #   97c464l1i#  pump_irr97
  5 8 9  pump_irr97  #   97c464l5i#  pump_irr97
  1 8 10  pump_irr97  #   97c465l1i#  pump_irr97
  5 8 10  pump_irr97  #   97c465l5i#  pump_irr97
  1 8 11  pump_irr97  #   97c466l1i#  pump_irr97
  5 8 11  pump_irr97  #   97c466l5i#  pump_irr97
  1 8 12  pump_irr97  #   97c467l1i#  pump_irr97
  5 8 12  pump_irr97  #   97c467l5i#  pump_irr97
  1 8 13  pump_irr97  #   97c468l1i#  pump_irr97
  4 8 13  pump_irr97  #   97c468l4i#  pump_irr97
  5 8 13  pump_irr97  #   97c468l5i#  pump_irr97
  1 8 14  pump_irr97  #   97c469l1i#  pump_irr97
  5 8 14  pump_irr97  #   97c469l5i#  pump_irr97
  1 8 15  pump_irr94  #   94c470l1i#  pump_irr94
  1 8 15  pump_irr97  #   97c470l1i#  pump_irr97
  5 8 15  pump_irr94  #   94c470l5i#  pump_irr94
  5 8 15  pump_irr97  #   97c470l5i#  pump_irr97
  1 8 16  pump_irr94  #   94c471l1i#  pump_irr94
  1 8 16  pump_irr95  #   95c471l1i#  pump_irr95
  1 8 16  pump_irr97  #   97c471l1i#  pump_irr97
  5 8 16  pump_irr94  #   94c471l5i#  pump_irr94
  5 8 16  pump_irr95  #   95c471l5i#  pump_irr95
  5 8 16  pump_irr97  #   97c471l5i#  pump_irr97
  1 8 17  pump_irr94  #   94c472l1i#  pump_irr94
  1 8 17  pump_irr95  #   95c472l1i#  pump_irr95
  1 9 9  pump_irr97  #   97c529l1i#  pump_irr97
  5 9 9  pump_irr97  #   97c529l5i#  pump_irr97
  1 9 10  pump_irr97  #   97c530l1i#  pump_irr97
  5 9 10  pump_irr97  #   97c530l5i#  pump_irr97
  1 9 12  pump_irr97  #   97c532l1i#  pump_irr97
  4 9 12  pump_irr97  #   97c532l4i#  pump_irr97
  5 9 12  pump_irr97  #   97c532l5i#  pump_irr97
  1 9 13  pump_irr97  #   97c533l1i#  pump_irr97
  4 9 13  pump_irr97  #   97c533l4i#  pump_irr97
  5 9 13  pump_irr97  #   97c533l5i#  pump_irr97
  1 9 14  pump_irr97  #   97c534l1i#  pump_irr97
  4 9 14  pump_irr97  #   97c534l4i#  pump_irr97
  5 9 14  pump_irr97  #   97c534l5i#  pump_irr97
  1 9 15  pump_irr97  #   97c535l1i#  pump_irr97
  4 9 15  pump_irr97  #   97c535l4i#  pump_irr97
  5 9 15  pump_irr97  #   97c535l5i#  pump_irr97
  1 9 16  pump_irr94  #   94c536l1i#  pump_irr94
  1 9 16  pump_irr97  #   97c536l1i#  pump_irr97
  5 9 16  pump_irr94  #   94c536l5i#  pump_irr94
  5 9 16  pump_irr97  #   97c536l5i#  pump_irr97
  1 9 17  pump_irr94  #   94c537l1i#  pump_irr94
  1 9 17  pump_irr95  #   95c537l1i#  pump_irr95
  1 9 17  pump_irr97  #   97c537l1i#  pump_irr97
  5 9 17  pump_irr94  #   94c537l5i#  pump_irr94
  5 9 17  pump_irr95  #   95c537l5i#  pump_irr95
  5 9 17  pump_irr97  #   97c537l5i#  pump_irr97
  1 9 18  pump_irr94  #   94c538l1i#  pump_irr94
  1 9 18  pump_irr95  #   95c538l1i#  pump_irr95
  4 9 18  pump_irr94  #   94c538l4i#  pump_irr94
  4 9 18  pump_irr95  #   95c538l4i#  pump_irr95
  5 9 18  pump_irr94  #   94c538l5i#  pump_irr94
  5 9 18  pump_irr95  #   95c538l5i#  pump_irr95
  1 10 8  pump_irr97  #   97c593l1i#  pump_irr97
  1 10 9  pump_irr97  #   97c594l1i#  pump_irr97
  1 10 9  pump_irr102  #  102c594l1i#  pump_irr102
  5 10 9  pump_irr97  #   97c594l5i#  pump_irr97
  5 10 9  pump_irr102  #  102c594l5i#  pump_irr102
  1 10 10  pump_irr97  #   97c595l1i#  pump_irr97
  1 10 10  pump_irr102  #  102c595l1i#  pump_irr102
  5 10 10  pump_irr97  #   97c595l5i#  pump_irr97
  5 10 10  pump_irr102  #  102c595l5i#  pump_irr102
  1 10 11  pump_irr97  #   97c596l1i#  pump_irr97
  1 10 11  pump_irr102  #  102c596l1i#  pump_irr102
  5 10 11  pump_irr97  #   97c596l5i#  pump_irr97
  5 10 11  pump_irr102  #  102c596l5i#  pump_irr102
  1 10 12  pump_irr97  #   97c597l1i#  pump_irr97
  4 10 12  pump_irr97  #   97c597l4i#  pump_irr97
  5 10 12  pump_irr97  #   97c597l5i#  pump_irr97
  1 10 13  pump_irr97  #   97c598l1i#  pump_irr97
  4 10 13  pump_irr97  #   97c598l4i#  pump_irr97
  5 10 13  pump_irr97  #   97c598l5i#  pump_irr97
  1 10 14  pump_irr97  #   97c599l1i#  pump_irr97
  4 10 14  pump_irr97  #   97c599l4i#  pump_irr97
  5 10 14  pump_irr97  #   97c599l5i#  pump_irr97
  1 10 15  pump_irr97  #   97c600l1i#  pump_irr97
  4 10 15  pump_irr97  #   97c600l4i#  pump_irr97
  5 10 15  pump_irr97  #   97c600l5i#  pump_irr97
  1 10 16  pump_irr97  #   97c601l1i#  pump_irr97
  4 10 16  pump_irr97  #   97c601l4i#  pump_irr97
  5 10 16  pump_irr97  #   97c601l5i#  pump_irr97
  1 10 17  pump_irr94  #   94c602l1i#  pump_irr94
  1 10 17  pump_irr97  #   97c602l1i#  pump_irr97
  4 10 17  pump_irr94  #   94c602l4i#  pump_irr94
  4 10 17  pump_irr97  #   97c602l4i#  pump_irr97
  5 10 17  pump_irr94  #   94c602l5i#  pump_irr94
  5 10 17  pump_irr97  #   97c602l5i#  pump_irr97
  1 10 18  pump_irr94  #   94c603l1i#  pump_irr94
  1 10 18  pump_irr95  #   95c603l1i#  pump_irr95
  1 10 18  pump_irr97  #   97c603l1i#  pump_irr97
  1 10 19  pump_irr94  #   94c604l1i#  pump_irr94
  1 10 19  pump_irr95  #   95c604l1i#  pump_irr95
  4 10 19  pump_irr94  #   94c604l4i#  pump_irr94
  4 10 19  pump_irr95  #   95c604l4i#  pump_irr95
  5 10 19  pump_irr94  #   94c604l5i#  pump_irr94
  5 10 19  pump_irr95  #   95c604l5i#  pump_irr95
  1 11 8  pump_irr97  #   97c658l1i#  pump_irr97
  1 11 8  pump_irr102  #  102c658l1i#  pump_irr102
  1 11 9  pump_irr97  #   97c659l1i#  pump_irr97
  1 11 9  pump_irr102  #  102c659l1i#  pump_irr102
  1 11 10  pump_irr97  #   97c660l1i#  pump_irr97
  1 11 10  pump_irr102  #  102c660l1i#  pump_irr102
  1 11 11  pump_irr97  #   97c661l1i#  pump_irr97
  1 11 11  pump_irr102  #  102c661l1i#  pump_irr102
  4 11 12  pump_irr97  #   97c662l4i#  pump_irr97
  4 11 12  pump_irr102  #  102c662l4i#  pump_irr102
  5 11 12  pump_irr97  #   97c662l5i#  pump_irr97
  5 11 12  pump_irr102  #  102c662l5i#  pump_irr102
  1 11 13  pump_irr97  #   97c663l1i#  pump_irr97
  1 11 13  pump_irr102  #  102c663l1i#  pump_irr102
  4 11 13  pump_irr97  #   97c663l4i#  pump_irr97
  4 11 13  pump_irr102  #  102c663l4i#  pump_irr102
  5 11 13  pump_irr97  #   97c663l5i#  pump_irr97
  5 11 13  pump_irr102  #  102c663l5i#  pump_irr102
  1 11 14  pump_irr97  #   97c664l1i#  pump_irr97
  1 11 14  pump_irr102  #  102c664l1i#  pump_irr102
  4 11 14  pump_irr97  #   97c664l4i#  pump_irr97
  4 11 14  pump_irr102  #  102c664l4i#  pump_irr102
  5 11 14  pump_irr97  #   97c664l5i#  pump_irr97
  5 11 14  pump_irr102  #  102c664l5i#  pump_irr102
  1 11 15  pump_irr97  #   97c665l1i#  pump_irr97
  1 11 15  pump_irr102  #  102c665l1i#  pump_irr102
  4 11 15  pump_irr97  #   97c665l4i#  pump_irr97
  4 11 15  pump_irr102  #  102c665l4i#  pump_irr102
  5 11 15  pump_irr97  #   97c665l5i#  pump_irr97
  5 11 15  pump_irr102  #  102c665l5i#  pump_irr102
  1 11 16  pump_irr97  #   97c666l1i#  pump_irr97
  1 11 16  pump_irr102  #  102c666l1i#  pump_irr102
  4 11 16  pump_irr97  #   97c666l4i#  pump_irr97
  4 11 16  pump_irr102  #  102c666l4i#  pump_irr102
  5 11 16  pump_irr97  #   97c666l5i#  pump_irr97
  5 11 16  pump_irr102  #  102c666l5i#  pump_irr102
  1 11 17  pump_irr97  #   97c667l1i#  pump_irr97
  1 11 17  pump_irr102  #  102c667l1i#  pump_irr102
  4 11 17  pump_irr97  #   97c667l4i#  pump_irr97
  4 11 17  pump_irr102  #  102c667l4i#  pump_irr102
  5 11 17  pump_irr97  #   97c667l5i#  pump_irr97
  5 11 17  pump_irr102  #  102c667l5i#  pump_irr102
  1 11 18  pump_irr94  #   94c668l1i#  pump_irr94
  1 11 18  pump_irr95  #   95c668l1i#  pump_irr95
  1 11 18  pump_irr97  #   97c668l1i#  pump_irr97
  1 11 19  pump_irr94  #   94c669l1i#  pump_irr94
  1 11 19  pump_irr95  #   95c669l1i#  pump_irr95
  1 11 19  pump_irr97  #   97c669l1i#  pump_irr97
  4 11 19  pump_irr94  #   94c669l4i#  pump_irr94
  4 11 19  pump_irr95  #   95c669l4i#  pump_irr95
  4 11 19  pump_irr97  #   97c669l4i#  pump_irr97
  5 11 19  pump_irr94  #   94c669l5i#  pump_irr94
  5 11 19  pump_irr95  #   95c669l5i#  pump_irr95
  5 11 19  pump_irr97  #   97c669l5i#  pump_irr97
  1 11 20  pump_irr94  #   94c670l1i#  pump_irr94
  1 11 20  pump_irr95  #   95c670l1i#  pump_irr95
  4 11 20  pump_irr94  #   94c670l4i#  pump_irr94
  4 11 20  pump_irr95  #   95c670l4i#  pump_irr95
  5 11 20  pump_irr94  #   94c670l5i#  pump_irr94
  5 11 20  pump_irr95  #   95c670l5i#  pump_irr95
  1 11 21  pump_irr95  #   95c671l1i#  pump_irr95
  4 11 21  pump_irr95  #   95c671l4i#  pump_irr95
  5 11 21  pump_irr95  #   95c671l5i#  pump_irr95
  1 11 22  pump_irr95  #   95c672l1i#  pump_irr95
  4 11 22  pump_irr95  #   95c672l4i#  pump_irr95
  5 11 22  pump_irr95  #   95c672l5i#  pump_irr95
  1 12 8  pump_irr97  #   97c723l1i#  pump_irr97
  1 12 8  pump_irr102  #  102c723l1i#  pump_irr102
  1 12 9  pump_irr97  #   97c724l1i#  pump_irr97
  1 12 9  pump_irr102  #  102c724l1i#  pump_irr102
  1 12 10  pump_irr102  #  102c725l1i#  pump_irr102
  1 12 11  pump_irr102  #  102c726l1i#  pump_irr102
  4 12 12  pump_irr81  #   81c727l4i#  pump_irr81
  4 12 12  pump_irr102  #  102c727l4i#  pump_irr102
  5 12 12  pump_irr81  #   81c727l5i#  pump_irr81
  5 12 12  pump_irr102  #  102c727l5i#  pump_irr102
  1 12 13  pump_irr81  #   81c728l1i#  pump_irr81
  1 12 13  pump_irr102  #  102c728l1i#  pump_irr102
  4 12 13  pump_irr81  #   81c728l4i#  pump_irr81
  4 12 13  pump_irr102  #  102c728l4i#  pump_irr102
  5 12 13  pump_irr81  #   81c728l5i#  pump_irr81
  5 12 13  pump_irr102  #  102c728l5i#  pump_irr102
  1 12 14  pump_irr102  #  102c729l1i#  pump_irr102
  4 12 14  pump_irr102  #  102c729l4i#  pump_irr102
  5 12 14  pump_irr102  #  102c729l5i#  pump_irr102
  1 12 15  pump_irr97  #   97c730l1i#  pump_irr97
  1 12 15  pump_irr102  #  102c730l1i#  pump_irr102
  4 12 15  pump_irr97  #   97c730l4i#  pump_irr97
  4 12 15  pump_irr102  #  102c730l4i#  pump_irr102
  5 12 15  pump_irr97  #   97c730l5i#  pump_irr97
  5 12 15  pump_irr102  #  102c730l5i#  pump_irr102
  1 12 16  pump_irr97  #   97c731l1i#  pump_irr97
  1 12 16  pump_irr102  #  102c731l1i#  pump_irr102
  4 12 16  pump_irr97  #   97c731l4i#  pump_irr97
  4 12 16  pump_irr102  #  102c731l4i#  pump_irr102
  5 12 16  pump_irr97  #   97c731l5i#  pump_irr97
  5 12 16  pump_irr102  #  102c731l5i#  pump_irr102
  1 12 17  pump_irr97  #   97c732l1i#  pump_irr97
  1 12 17  pump_irr102  #  102c732l1i#  pump_irr102
  4 12 17  pump_irr97  #   97c732l4i#  pump_irr97
  4 12 17  pump_irr102  #  102c732l4i#  pump_irr102
  5 12 17  pump_irr97  #   97c732l5i#  pump_irr97
  5 12 17  pump_irr102  #  102c732l5i#  pump_irr102
  1 12 18  pump_irr97  #   97c733l1i#  pump_irr97
  4 12 18  pump_irr97  #   97c733l4i#  pump_irr97
  5 12 18  pump_irr97  #   97c733l5i#  pump_irr97
  1 12 19  pump_irr95  #   95c734l1i#  pump_irr95
  1 12 19  pump_irr97  #   97c734l1i#  pump_irr97
  4 12 19  pump_irr95  #   95c734l4i#  pump_irr95
  4 12 19  pump_irr97  #   97c734l4i#  pump_irr97
  5 12 19  pump_irr95  #   95c734l5i#  pump_irr95
  5 12 19  pump_irr97  #   97c734l5i#  pump_irr97
  1 12 20  pump_irr95  #   95c735l1i#  pump_irr95
  4 12 20  pump_irr95  #   95c735l4i#  pump_irr95
  5 12 20  pump_irr95  #   95c735l5i#  pump_irr95
  1 12 21  pump_irr95  #   95c736l1i#  pump_irr95
  4 12 21  pump_irr95  #   95c736l4i#  pump_irr95
  5 12 21  pump_irr95  #   95c736l5i#  pump_irr95
  1 12 22  pump_irr95  #   95c737l1i#  pump_irr95
  4 12 22  pump_irr95  #   95c737l4i#  pump_irr95
  5 12 22  pump_irr95  #   95c737l5i#  pump_irr95
  1 12 23  pump_irr95  #   95c738l1i#  pump_irr95
  4 12 23  pump_irr95  #   95c738l4i#  pump_irr95
  5 12 23  pump_irr95  #   95c738l5i#  pump_irr95
  6 12 23  pump_irr95  #   95c738l6i#  pump_irr95
  1 12 24  pump_irr95  #   95c739l1i#  pump_irr95
  4 12 24  pump_irr95  #   95c739l4i#  pump_irr95
  5 12 24  pump_irr95  #   95c739l5i#  pump_irr95
  6 12 24  pump_irr95  #   95c739l6i#  pump_irr95
  1 13 8  pump_irr97  #   97c788l1i#  pump_irr97
  1 13 8  pump_irr102  #  102c788l1i#  pump_irr102
  1 13 9  pump_irr97  #   97c789l1i#  pump_irr97
  1 13 9  pump_irr102  #  102c789l1i#  pump_irr102
  1 13 10  pump_irr102  #  102c790l1i#  pump_irr102
  1 13 11  pump_irr102  #  102c791l1i#  pump_irr102
  1 13 12  pump_irr81  #   81c792l1i#  pump_irr81
  1 13 12  pump_irr102  #  102c792l1i#  pump_irr102
  4 13 12  pump_irr81  #   81c792l4i#  pump_irr81
  4 13 12  pump_irr102  #  102c792l4i#  pump_irr102
  5 13 12  pump_irr81  #   81c792l5i#  pump_irr81
  5 13 12  pump_irr102  #  102c792l5i#  pump_irr102
  4 13 13  pump_irr81  #   81c793l4i#  pump_irr81
  4 13 13  pump_irr102  #  102c793l4i#  pump_irr102
  5 13 13  pump_irr81  #   81c793l5i#  pump_irr81
  5 13 13  pump_irr102  #  102c793l5i#  pump_irr102
  1 13 14  pump_irr102  #  102c794l1i#  pump_irr102
  4 13 14  pump_irr102  #  102c794l4i#  pump_irr102
  5 13 14  pump_irr102  #  102c794l5i#  pump_irr102
  1 13 15  pump_irr81  #   81c795l1i#  pump_irr81
  1 13 15  pump_irr102  #  102c795l1i#  pump_irr102
  4 13 15  pump_irr81  #   81c795l4i#  pump_irr81
  4 13 15  pump_irr102  #  102c795l4i#  pump_irr102
  5 13 15  pump_irr81  #   81c795l5i#  pump_irr81
  5 13 15  pump_irr102  #  102c795l5i#  pump_irr102
  1 13 16  pump_irr97  #   97c796l1i#  pump_irr97
  1 13 16  pump_irr102  #  102c796l1i#  pump_irr102
  4 13 16  pump_irr97  #   97c796l4i#  pump_irr97
  4 13 16  pump_irr102  #  102c796l4i#  pump_irr102
  5 13 16  pump_irr97  #   97c796l5i#  pump_irr97
  5 13 16  pump_irr102  #  102c796l5i#  pump_irr102
  1 13 17  pump_irr97  #   97c797l1i#  pump_irr97
  1 13 17  pump_irr102  #  102c797l1i#  pump_irr102
  4 13 17  pump_irr97  #   97c797l4i#  pump_irr97
  4 13 17  pump_irr102  #  102c797l4i#  pump_irr102
  5 13 17  pump_irr97  #   97c797l5i#  pump_irr97
  5 13 17  pump_irr102  #  102c797l5i#  pump_irr102
  1 13 18  pump_irr97  #   97c798l1i#  pump_irr97
  1 13 18  pump_irr102  #  102c798l1i#  pump_irr102
  4 13 18  pump_irr97  #   97c798l4i#  pump_irr97
  4 13 18  pump_irr102  #  102c798l4i#  pump_irr102
  5 13 18  pump_irr97  #   97c798l5i#  pump_irr97
  5 13 18  pump_irr102  #  102c798l5i#  pump_irr102
  1 13 19  pump_irr95  #   95c799l1i#  pump_irr95
  1 13 19  pump_irr97  #   97c799l1i#  pump_irr97
  1 13 19  pump_irr102  #  102c799l1i#  pump_irr102
  4 13 19  pump_irr95  #   95c799l4i#  pump_irr95
  4 13 19  pump_irr97  #   97c799l4i#  pump_irr97
  4 13 19  pump_irr102  #  102c799l4i#  pump_irr102
  5 13 19  pump_irr95  #   95c799l5i#  pump_irr95
  5 13 19  pump_irr97  #   97c799l5i#  pump_irr97
  5 13 19  pump_irr102  #  102c799l5i#  pump_irr102
  1 13 20  pump_irr95  #   95c800l1i#  pump_irr95
  1 13 20  pump_irr97  #   97c800l1i#  pump_irr97
  1 13 20  pump_irr102  #  102c800l1i#  pump_irr102
  4 13 20  pump_irr95  #   95c800l4i#  pump_irr95
  4 13 20  pump_irr97  #   97c800l4i#  pump_irr97
  4 13 20  pump_irr102  #  102c800l4i#  pump_irr102
  5 13 20  pump_irr95  #   95c800l5i#  pump_irr95
  5 13 20  pump_irr97  #   97c800l5i#  pump_irr97
  5 13 20  pump_irr102  #  102c800l5i#  pump_irr102
  1 13 21  pump_irr95  #   95c801l1i#  pump_irr95
  1 13 21  pump_irr97  #   97c801l1i#  pump_irr97
  4 13 21  pump_irr95  #   95c801l4i#  pump_irr95
  4 13 21  pump_irr97  #   97c801l4i#  pump_irr97
  5 13 21  pump_irr95  #   95c801l5i#  pump_irr95
  5 13 21  pump_irr97  #   97c801l5i#  pump_irr97
  1 13 22  pump_irr95  #   95c802l1i#  pump_irr95
  4 13 22  pump_irr95  #   95c802l4i#  pump_irr95
  5 13 22  pump_irr95  #   95c802l5i#  pump_irr95
  1 13 23  pump_irr95  #   95c803l1i#  pump_irr95
  4 13 23  pump_irr95  #   95c803l4i#  pump_irr95
  5 13 23  pump_irr95  #   95c803l5i#  pump_irr95
  6 13 23  pump_irr95  #   95c803l6i#  pump_irr95
  1 13 24  pump_irr95  #   95c804l1i#  pump_irr95
  4 13 24  pump_irr95  #   95c804l4i#  pump_irr95
  5 13 24  pump_irr95  #   95c804l5i#  pump_irr95
  6 13 24  pump_irr95  #   95c804l6i#  pump_irr95
  4 13 25  pump_irr95  #   95c805l4i#  pump_irr95
  5 13 25  pump_irr95  #   95c805l5i#  pump_irr95
  6 13 25  pump_irr95  #   95c805l6i#  pump_irr95
  4 13 26  pump_irr95  #   95c806l4i#  pump_irr95
  6 13 26  pump_irr95  #   95c806l6i#  pump_irr95
  4 13 27  pump_irr95  #   95c807l4i#  pump_irr95
  6 13 27  pump_irr95  #   95c807l6i#  pump_irr95
  4 13 28  pump_irr95  #   95c808l4i#  pump_irr95
  6 13 28  pump_irr95  #   95c808l6i#  pump_irr95
  4 13 34  pump_irr95  #   95c814l4i#  pump_irr95
  4 13 34  pump_irr102  #  102c814l4i#  pump_irr102
  1 14 8  pump_irr97  #   97c853l1i#  pump_irr97
  1 14 8  pump_irr102  #  102c853l1i#  pump_irr102
  1 14 9  pump_irr102  #  102c854l1i#  pump_irr102
  1 14 10  pump_irr102  #  102c855l1i#  pump_irr102
  1 14 11  pump_irr102  #  102c856l1i#  pump_irr102
  1 14 12  pump_irr81  #   81c857l1i#  pump_irr81
  1 14 12  pump_irr102  #  102c857l1i#  pump_irr102
  4 14 12  pump_irr81  #   81c857l4i#  pump_irr81
  4 14 12  pump_irr102  #  102c857l4i#  pump_irr102
  5 14 12  pump_irr81  #   81c857l5i#  pump_irr81
  5 14 12  pump_irr102  #  102c857l5i#  pump_irr102
  4 14 13  pump_irr81  #   81c858l4i#  pump_irr81
  4 14 13  pump_irr102  #  102c858l4i#  pump_irr102
  5 14 13  pump_irr81  #   81c858l5i#  pump_irr81
  5 14 13  pump_irr102  #  102c858l5i#  pump_irr102
  4 14 15  pump_irr81  #   81c860l4i#  pump_irr81
  4 14 15  pump_irr102  #  102c860l4i#  pump_irr102
  5 14 15  pump_irr81  #   81c860l5i#  pump_irr81
  5 14 15  pump_irr102  #  102c860l5i#  pump_irr102
  4 14 16  pump_irr81  #   81c861l4i#  pump_irr81
  4 14 16  pump_irr102  #  102c861l4i#  pump_irr102
  5 14 16  pump_irr81  #   81c861l5i#  pump_irr81
  5 14 16  pump_irr102  #  102c861l5i#  pump_irr102
  4 14 17  pump_irr81  #   81c862l4i#  pump_irr81
  4 14 17  pump_irr97  #   97c862l4i#  pump_irr97
  4 14 17  pump_irr102  #  102c862l4i#  pump_irr102
  5 14 17  pump_irr81  #   81c862l5i#  pump_irr81
  5 14 17  pump_irr97  #   97c862l5i#  pump_irr97
  5 14 17  pump_irr102  #  102c862l5i#  pump_irr102
  4 14 18  pump_irr97  #   97c863l4i#  pump_irr97
  4 14 18  pump_irr102  #  102c863l4i#  pump_irr102
  5 14 18  pump_irr97  #   97c863l5i#  pump_irr97
  5 14 18  pump_irr102  #  102c863l5i#  pump_irr102
  1 14 19  pump_irr97  #   97c864l1i#  pump_irr97
  1 14 19  pump_irr102  #  102c864l1i#  pump_irr102
  4 14 19  pump_irr97  #   97c864l4i#  pump_irr97
  4 14 19  pump_irr102  #  102c864l4i#  pump_irr102
  5 14 19  pump_irr97  #   97c864l5i#  pump_irr97
  5 14 19  pump_irr102  #  102c864l5i#  pump_irr102
  1 14 20  pump_irr95  #   95c865l1i#  pump_irr95
  1 14 20  pump_irr97  #   97c865l1i#  pump_irr97
  1 14 20  pump_irr102  #  102c865l1i#  pump_irr102
  4 14 20  pump_irr95  #   95c865l4i#  pump_irr95
  4 14 20  pump_irr97  #   97c865l4i#  pump_irr97
  4 14 20  pump_irr102  #  102c865l4i#  pump_irr102
  5 14 20  pump_irr95  #   95c865l5i#  pump_irr95
  5 14 20  pump_irr97  #   97c865l5i#  pump_irr97
  5 14 20  pump_irr102  #  102c865l5i#  pump_irr102
  1 14 21  pump_irr95  #   95c866l1i#  pump_irr95
  1 14 21  pump_irr96  #   96c866l1i#  pump_irr96
  1 14 21  pump_irr97  #   97c866l1i#  pump_irr97
  1 14 21  pump_irr102  #  102c866l1i#  pump_irr102
  4 14 21  pump_irr95  #   95c866l4i#  pump_irr95
  4 14 21  pump_irr96  #   96c866l4i#  pump_irr96
  4 14 21  pump_irr97  #   97c866l4i#  pump_irr97
  4 14 21  pump_irr102  #  102c866l4i#  pump_irr102
  5 14 21  pump_irr95  #   95c866l5i#  pump_irr95
  5 14 21  pump_irr96  #   96c866l5i#  pump_irr96
  5 14 21  pump_irr97  #   97c866l5i#  pump_irr97
  5 14 21  pump_irr102  #  102c866l5i#  pump_irr102
  1 14 22  pump_irr95  #   95c867l1i#  pump_irr95
  1 14 22  pump_irr96  #   96c867l1i#  pump_irr96
  1 14 22  pump_irr97  #   97c867l1i#  pump_irr97
  4 14 22  pump_irr95  #   95c867l4i#  pump_irr95
  4 14 22  pump_irr96  #   96c867l4i#  pump_irr96
  4 14 22  pump_irr97  #   97c867l4i#  pump_irr97
  5 14 22  pump_irr95  #   95c867l5i#  pump_irr95
  5 14 22  pump_irr96  #   96c867l5i#  pump_irr96
  5 14 22  pump_irr97  #   97c867l5i#  pump_irr97
  6 14 22  pump_irr95  #   95c867l6i#  pump_irr95
  6 14 22  pump_irr96  #   96c867l6i#  pump_irr96
  6 14 22  pump_irr97  #   97c867l6i#  pump_irr97
  1 14 23  pump_irr95  #   95c868l1i#  pump_irr95
  4 14 23  pump_irr95  #   95c868l4i#  pump_irr95
  5 14 23  pump_irr95  #   95c868l5i#  pump_irr95
  6 14 23  pump_irr95  #   95c868l6i#  pump_irr95
  1 14 24  pump_irr95  #   95c869l1i#  pump_irr95
  4 14 24  pump_irr95  #   95c869l4i#  pump_irr95
  5 14 24  pump_irr95  #   95c869l5i#  pump_irr95
  6 14 24  pump_irr95  #   95c869l6i#  pump_irr95
  4 14 25  pump_irr95  #   95c870l4i#  pump_irr95
  5 14 25  pump_irr95  #   95c870l5i#  pump_irr95
  6 14 25  pump_irr95  #   95c870l6i#  pump_irr95
  4 14 26  pump_irr95  #   95c871l4i#  pump_irr95
  6 14 26  pump_irr95  #   95c871l6i#  pump_irr95
  4 14 27  pump_irr95  #   95c872l4i#  pump_irr95
  6 14 27  pump_irr95  #   95c872l6i#  pump_irr95
  4 14 28  pump_irr95  #   95c873l4i#  pump_irr95
  6 14 28  pump_irr95  #   95c873l6i#  pump_irr95
  4 14 29  pump_irr95  #   95c874l4i#  pump_irr95
  4 14 30  pump_irr95  #   95c875l4i#  pump_irr95
  6 14 30  pump_irr95  #   95c875l6i#  pump_irr95
  4 14 31  pump_irr95  #   95c876l4i#  pump_irr95
  6 14 31  pump_irr95  #   95c876l6i#  pump_irr95
  4 14 32  pump_irr95  #   95c877l4i#  pump_irr95
  6 14 32  pump_irr95  #   95c877l6i#  pump_irr95
  1 14 33  pump_irr95  #   95c878l1i#  pump_irr95
  1 14 33  pump_irr96  #   96c878l1i#  pump_irr96
  1 14 33  pump_irr102  #  102c878l1i#  pump_irr102
  4 14 33  pump_irr95  #   95c878l4i#  pump_irr95
  4 14 33  pump_irr96  #   96c878l4i#  pump_irr96
  4 14 33  pump_irr102  #  102c878l4i#  pump_irr102
  4 14 34  pump_irr95  #   95c879l4i#  pump_irr95
  4 14 34  pump_irr96  #   96c879l4i#  pump_irr96
  4 14 34  pump_irr102  #  102c879l4i#  pump_irr102
  4 14 35  pump_irr93  #   93c880l4i#  pump_irr93
  4 14 35  pump_irr101  #  101c880l4i#  pump_irr101
  4 14 35  pump_irr102  #  102c880l4i#  pump_irr102
  1 15 8  pump_irr97  #   97c918l1i#  pump_irr97
  1 15 8  pump_irr102  #  102c918l1i#  pump_irr102
  1 15 9  pump_irr102  #  102c919l1i#  pump_irr102
  1 15 10  pump_irr102  #  102c920l1i#  pump_irr102
  5 15 11  pump_irr102  #  102c921l5i#  pump_irr102
  1 15 12  pump_irr81  #   81c922l1i#  pump_irr81
  1 15 12  pump_irr102  #  102c922l1i#  pump_irr102
  4 15 12  pump_irr81  #   81c922l4i#  pump_irr81
  4 15 12  pump_irr102  #  102c922l4i#  pump_irr102
  5 15 12  pump_irr81  #   81c922l5i#  pump_irr81
  5 15 12  pump_irr102  #  102c922l5i#  pump_irr102
  4 15 13  pump_irr81  #   81c923l4i#  pump_irr81
  4 15 13  pump_irr102  #  102c923l4i#  pump_irr102
  5 15 13  pump_irr81  #   81c923l5i#  pump_irr81
  5 15 13  pump_irr102  #  102c923l5i#  pump_irr102
  4 15 16  pump_irr102  #  102c926l4i#  pump_irr102
  5 15 16  pump_irr102  #  102c926l5i#  pump_irr102
  4 15 17  pump_irr81  #   81c927l4i#  pump_irr81
  4 15 17  pump_irr102  #  102c927l4i#  pump_irr102
  5 15 17  pump_irr81  #   81c927l5i#  pump_irr81
  5 15 17  pump_irr102  #  102c927l5i#  pump_irr102
  4 15 18  pump_irr102  #  102c928l4i#  pump_irr102
  5 15 18  pump_irr102  #  102c928l5i#  pump_irr102
  1 15 19  pump_irr93  #   93c929l1i#  pump_irr93
  1 15 19  pump_irr101  #  101c929l1i#  pump_irr101
  1 15 19  pump_irr102  #  102c929l1i#  pump_irr102
  4 15 19  pump_irr93  #   93c929l4i#  pump_irr93
  4 15 19  pump_irr101  #  101c929l4i#  pump_irr101
  4 15 19  pump_irr102  #  102c929l4i#  pump_irr102
  5 15 19  pump_irr93  #   93c929l5i#  pump_irr93
  5 15 19  pump_irr101  #  101c929l5i#  pump_irr101
  5 15 19  pump_irr102  #  102c929l5i#  pump_irr102
  1 15 20  pump_irr96  #   96c930l1i#  pump_irr96
  1 15 20  pump_irr97  #   97c930l1i#  pump_irr97
  1 15 20  pump_irr102  #  102c930l1i#  pump_irr102
  4 15 20  pump_irr96  #   96c930l4i#  pump_irr96
  4 15 20  pump_irr97  #   97c930l4i#  pump_irr97
  4 15 20  pump_irr102  #  102c930l4i#  pump_irr102
  5 15 20  pump_irr96  #   96c930l5i#  pump_irr96
  5 15 20  pump_irr97  #   97c930l5i#  pump_irr97
  5 15 20  pump_irr102  #  102c930l5i#  pump_irr102
  1 15 21  pump_irr96  #   96c931l1i#  pump_irr96
  1 15 21  pump_irr97  #   97c931l1i#  pump_irr97
  1 15 21  pump_irr102  #  102c931l1i#  pump_irr102
  4 15 21  pump_irr96  #   96c931l4i#  pump_irr96
  4 15 21  pump_irr97  #   97c931l4i#  pump_irr97
  4 15 21  pump_irr102  #  102c931l4i#  pump_irr102
  5 15 21  pump_irr96  #   96c931l5i#  pump_irr96
  5 15 21  pump_irr97  #   97c931l5i#  pump_irr97
  5 15 21  pump_irr102  #  102c931l5i#  pump_irr102
  1 15 22  pump_irr95  #   95c932l1i#  pump_irr95
  1 15 22  pump_irr96  #   96c932l1i#  pump_irr96
  1 15 22  pump_irr97  #   97c932l1i#  pump_irr97
  4 15 22  pump_irr95  #   95c932l4i#  pump_irr95
  4 15 22  pump_irr96  #   96c932l4i#  pump_irr96
  4 15 22  pump_irr97  #   97c932l4i#  pump_irr97
  5 15 22  pump_irr95  #   95c932l5i#  pump_irr95
  5 15 22  pump_irr96  #   96c932l5i#  pump_irr96
  5 15 22  pump_irr97  #   97c932l5i#  pump_irr97
  6 15 22  pump_irr95  #   95c932l6i#  pump_irr95
  6 15 22  pump_irr96  #   96c932l6i#  pump_irr96
  6 15 22  pump_irr97  #   97c932l6i#  pump_irr97
  1 15 23  pump_irr95  #   95c933l1i#  pump_irr95
  1 15 23  pump_irr96  #   96c933l1i#  pump_irr96
  4 15 23  pump_irr95  #   95c933l4i#  pump_irr95
  4 15 23  pump_irr96  #   96c933l4i#  pump_irr96
  5 15 23  pump_irr95  #   95c933l5i#  pump_irr95
  5 15 23  pump_irr96  #   96c933l5i#  pump_irr96
  6 15 23  pump_irr95  #   95c933l6i#  pump_irr95
  6 15 23  pump_irr96  #   96c933l6i#  pump_irr96
  1 15 24  pump_irr95  #   95c934l1i#  pump_irr95
  1 15 24  pump_irr96  #   96c934l1i#  pump_irr96
  4 15 24  pump_irr95  #   95c934l4i#  pump_irr95
  4 15 24  pump_irr96  #   96c934l4i#  pump_irr96
  5 15 24  pump_irr95  #   95c934l5i#  pump_irr95
  5 15 24  pump_irr96  #   96c934l5i#  pump_irr96
  6 15 24  pump_irr95  #   95c934l6i#  pump_irr95
  6 15 24  pump_irr96  #   96c934l6i#  pump_irr96
  4 15 25  pump_irr95  #   95c935l4i#  pump_irr95
  5 15 25  pump_irr95  #   95c935l5i#  pump_irr95
  6 15 25  pump_irr95  #   95c935l6i#  pump_irr95
  4 15 26  pump_irr95  #   95c936l4i#  pump_irr95
  6 15 26  pump_irr95  #   95c936l6i#  pump_irr95
  1 15 27  pump_irr95  #   95c937l1i#  pump_irr95
  4 15 27  pump_irr95  #   95c937l4i#  pump_irr95
  1 15 28  pump_irr95  #   95c938l1i#  pump_irr95
  4 15 28  pump_irr95  #   95c938l4i#  pump_irr95
  1 15 29  pump_irr95  #   95c939l1i#  pump_irr95
  4 15 29  pump_irr95  #   95c939l4i#  pump_irr95
  6 15 29  pump_irr95  #   95c939l6i#  pump_irr95
  1 15 30  pump_irr95  #   95c940l1i#  pump_irr95
  4 15 30  pump_irr95  #   95c940l4i#  pump_irr95
  6 15 30  pump_irr95  #   95c940l6i#  pump_irr95
  4 15 31  pump_irr95  #   95c941l4i#  pump_irr95
  6 15 31  pump_irr95  #   95c941l6i#  pump_irr95
  4 15 32  pump_irr95  #   95c942l4i#  pump_irr95
  4 15 32  pump_irr96  #   96c942l4i#  pump_irr96
  6 15 32  pump_irr95  #   95c942l6i#  pump_irr95
  6 15 32  pump_irr96  #   96c942l6i#  pump_irr96
  4 15 33  pump_irr95  #   95c943l4i#  pump_irr95