# File generated by Flopy version 3.3.2 on 05/05/2022 at 16:49:46.
BEGIN options
  auxiliary  multiplier
  AUXMULTNAME  multiplier
  BOUNDNAMES
  SAVE_FLOWS
  TS6  FILEIN  mf6-tv_hist-canal_leakage_rates-a-canal_dist.ts
END options

BEGIN dimensions
  MAXBOUND  1656
END dimensions

BEGIN period  1
  1 17 17  leaka05  2.89994200E-04  leaka05
  1 17 18  leaka05       0.00284994  leaka05
  1 18 16  leaka05  2.29995400E-04  leaka05
  1 18 17  leaka05  8.19983600E-04  leaka05
  1 18 18  leaka05       0.00939981  leaka05
  1 18 19  leaka05       0.01447971  leaka05
  1 18 22  leaka05       0.00729985  leaka05
  1 19 17  leaka05       0.00183996  leaka05
  1 19 18  leaka05       0.00289994  leaka05
  1 19 19  leaka05       0.02353953  leaka05
  1 19 20  leaka05       0.00248995  leaka05
  1 19 21  leaka05       0.00156997  leaka05
  1 19 22  leaka05       0.00790984  leaka05
  1 20 8  leaka05  1.49997000E-04  leaka05
  1 20 9  leaka05  5.59988800E-04  leaka05
  1 20 10  leaka05       0.00477990  leaka05
  1 20 11  leaka05  2.09995800E-04  leaka05
  1 20 18  leaka05       0.00210996  leaka05
  1 20 19  leaka05       0.00835983  leaka05
  1 20 20  leaka05       0.02478950  leaka05
  1 20 21  leaka05       0.00213996  leaka05
  1 20 22  leaka05       0.00298994  leaka05
  1 20 23  leaka05       0.00394992  leaka05
  1 21 8  leaka05  3.09993800E-04  leaka05
  1 21 9  leaka05       0.00456991  leaka05
  1 21 10  leaka05       0.01268975  leaka05
  1 21 11  leaka05       0.03167937  leaka05
  1 21 12  leaka05       0.00282994  leaka05
  1 21 17  leaka05  2.49995000E-04  leaka05
  1 21 18  leaka05       0.00865983  leaka05
  1 21 19  leaka05       0.00759985  leaka05
  1 21 20  leaka05       0.00346993  leaka05
  1 21 21  leaka05       0.00147997  leaka05
  1 21 22  leaka05       0.00422992  leaka05
  1 21 23  leaka05       0.00563989  leaka05
  1 22 10  leaka05  8.49983000E-04  leaka05
  1 22 11  leaka05       0.00263995  leaka05
  1 22 12  leaka05       0.01079978  leaka05
  1 22 13  leaka05       0.00324994  leaka05
  1 22 14  leaka05  4.29991400E-04  leaka05
  1 22 16  leaka05  3.89992200E-04  leaka05
  1 22 17  leaka05       0.00458991  leaka05
  1 22 18  leaka05       0.02388952  leaka05
  1 22 19  leaka05       0.00343993  leaka05
  1 22 20  leaka05       0.00132997  leaka05
  1 22 21  leaka05       0.00761985  leaka05
  1 22 22  leaka05       0.00161997  leaka05
  1 22 23  leaka05       0.00617988  leaka05
  1 23 12  leaka05       0.00736985  leaka05
  1 23 13  leaka05       0.01587968  leaka05
  1 23 14  leaka05       0.02410952  leaka05
  1 23 15  leaka05       0.01442971  leaka05
  1 23 16  leaka05       0.02089958  leaka05
  1 23 17  leaka05       0.01548969  leaka05
  1 23 18  leaka05       0.01812964  leaka05
  1 23 19  leaka05       0.01327973  leaka05
  1 23 20  leaka05       0.01533969  leaka05
  1 23 21  leaka05       0.00391992  leaka05
  1 23 22  leaka05       0.00433991  leaka05
  1 23 23  leaka05       0.01449971  leaka05
  1 23 24  leaka05       0.02094958  leaka05
  1 23 25  leaka05       0.00412992  leaka05
  1 23 26  leaka05  7.09985800E-04  leaka05
  1 24 12  leaka05  2.99994000E-04  leaka05
  1 24 13  leaka05       0.00654987  leaka05
  1 24 14  leaka05       0.00999980  leaka05
  1 24 15  leaka05       0.00301994  leaka05
  1 24 16  leaka05       0.00871983  leaka05
  1 24 17  leaka05       0.00779984  leaka05
  1 24 18  leaka05       0.01341973  leaka05
  1 24 19  leaka05       0.00967981  leaka05
  1 24 20  leaka05       0.00641987  leaka05
  1 24 21  leaka05  1.99996000E-05  leaka05
  1 24 22  leaka05       0.00400992  leaka05
  1 24 23  leaka05       0.00621988  leaka05
  1 24 24  leaka05       0.01013980  leaka05
  1 24 25  leaka05       0.00598988  leaka05
  1 24 26  leaka05       0.01714966  leaka05
  1 24 27  leaka05       0.00134997  leaka05
  1 25 15  leaka05       0.00529989  leaka05
  1 25 16  leaka05       0.05662887  leaka05
  1 25 17  leaka05       0.02671947  leaka05
  1 25 18  leaka05       0.01093978  leaka05
  1 25 19  leaka05       0.01874963  leaka05
  1 25 20  leaka05  9.19981600E-04  leaka05
  1 25 21  leaka05       0.00679986  leaka05
  1 25 22  leaka05  6.69986600E-04  leaka05
  1 25 23  leaka05       0.00244995  leaka05
  1 25 24  leaka05       0.00385992  leaka05
  1 25 25  leaka05       0.00473991  leaka05
  1 25 26  leaka05       0.02034959  leaka05
  1 25 27  leaka05       0.00843983  leaka05
  1 25 28  leaka05       0.00134997  leaka05
  1 25 29  leaka05       0.00609988  leaka05
  1 26 16  leaka05       0.00154997  leaka05
  1 26 17  leaka05       0.00909982  leaka05
  1 26 18  leaka05       0.01394972  leaka05
  1 26 19  leaka05       0.01329973  leaka05
  1 26 20  leaka05       0.00711986  leaka05
  1 26 21  leaka05       0.00963981  leaka05
  1 26 23  leaka05       0.00239995  leaka05
  1 26 24  leaka05       0.00636987  leaka05
  1 26 25  leaka05       0.01233975  leaka05
  1 26 26  leaka05       0.01347973  leaka05
  1 26 27  leaka05       0.00616988  leaka05
  1 26 28  leaka05       0.02513950  leaka05
  1 26 29  leaka05       0.00220996  leaka05
  1 27 17  leaka05  9.29981400E-04  leaka05
  1 27 18  leaka05       0.00154997  leaka05
  1 27 19  leaka05       0.00545989  leaka05
  1 27 20  leaka05       0.01166977  leaka05
  1 27 21  leaka05       0.00343993  leaka05
  1 27 22  leaka05  5.69988600E-04  leaka05
  1 27 23  leaka05       0.00701986  leaka05
  1 27 24  leaka05       0.00288994  leaka05
  1 27 25  leaka05       0.01112978  leaka05
  1 27 26  leaka05       0.02115958  leaka05
  1 27 27  leaka05       0.01353973  leaka05
  1 27 28  leaka05       0.00573989  leaka05
  1 28 18  leaka05  1.99996000E-05  leaka05
  1 28 19  leaka05       0.00151997  leaka05
  1 28 20  leaka05       0.00654987  leaka05
  1 28 21  leaka05       0.01090978  leaka05
  1 28 22  leaka05       0.00344993  leaka05
  1 28 23  leaka05       0.00373993  leaka05
  1 28 24  leaka05  1.99996000E-04  leaka05
  1 28 25  leaka05  1.19997600E-04  leaka05
  1 29 20  leaka05  6.89986200E-04  leaka05
  1 29 21  leaka05       0.00592988  leaka05
  1 29 22  leaka05       0.00403992  leaka05
  1 30 22  leaka05  5.89988200E-04  leaka05
  1 17 8  leaka25       0.00401012  leaka25
  1 17 9  leaka25       0.04185126  leaka25
  1 18 8  leaka25       0.05844175  leaka25
  1 18 9  leaka25       0.02975089  leaka25
  1 19 8  leaka25       0.01545046  leaka25
  1 20 6  leaka25       0.00136004  leaka25
  1 20 8  leaka25       0.00852026  leaka25
  1 21 6  leaka25       0.00192006  leaka25
  1 21 7  leaka25  6.90020701E-04  leaka25
  1 21 8  leaka25  4.90014700E-04  leaka25
  1 21 9  leaka25       0.05973179  leaka25
  1 21 10  leaka25       0.00112003  leaka25
  1 22 8  leaka25       0.00263008  leaka25
  1 22 10  leaka25       0.03274098  leaka25
  1 22 11  leaka25       0.00534016  leaka25
  1 22 12  leaka25  7.50022501E-04  leaka25
  1 23 8  leaka25  4.90014700E-04  leaka25
  1 23 9  leaka25  4.40013200E-04  leaka25
  1 23 11  leaka25       0.00959029  leaka25
  1 23 12  leaka25       0.02774083  leaka25
  1 24 9  leaka25  3.20009600E-04  leaka25
  1 24 10  leaka25       0.00497015  leaka25
  1 24 11  leaka25       0.00122004  leaka25
  1 24 12  leaka25       0.04572137  leaka25
  1 24 13  leaka25       0.01116033  leaka25
  1 24 14  leaka25       0.01178035  leaka25
  1 24 15  leaka25       0.00931028  leaka25
  1 24 16  leaka25       0.00128004  leaka25
  1 25 10  leaka25       0.01510045  leaka25
  1 25 11  leaka25       0.07074212  leaka25
  1 25 12  leaka25       0.05007150  leaka25
  1 25 13  leaka25       0.06328190  leaka25
  1 25 14  leaka25       0.00695021  leaka25
  1 25 15  leaka25       0.05391162  leaka25
  1 25 16  leaka25       0.00601018  leaka25
  1 26 11  leaka25       0.00189006  leaka25
  1 26 12  leaka25       0.09125274  leaka25
  1 26 13  leaka25       0.01926058  leaka25
  1 26 14  leaka25       0.01381041  leaka25
  1 26 15  leaka25  7.00021001E-04  leaka25
  1 26 16  leaka25       0.04602138  leaka25
  1 26 17  leaka25       0.00973029  leaka25
  1 27 14  leaka25       0.00540016  leaka25
  1 27 16  leaka25       0.00358011  leaka25
  1 27 17  leaka25       0.06692201  leaka25
  1 27 18  leaka25       0.03684111  leaka25
  1 28 17  leaka25       0.00110003  leaka25
  1 28 18  leaka25       0.02712081  leaka25
  1 28 19  leaka25       0.01590048  leaka25
  1 28 20  leaka25  7.30021901E-04  leaka25
  1 29 19  leaka25       0.00167005  leaka25
  1 29 20  leaka25       0.00286009  leaka25
  1 29 21  leaka25  3.20009600E-04  leaka25
  1 26 33  leaka26       0.02690587  leaka26
  1 26 34  leaka26       0.01139267  leaka26
  1 26 35  leaka26       0.02040889  leaka26
  1 26 36  leaka26       0.03315807  leaka26
  1 26 37  leaka26       0.00362077  leaka26
  1 27 29  leaka26  1.12192780E-04  leaka26
  1 27 30  leaka26       0.00703755  leaka26
  1 27 31  leaka26       0.08642924  leaka26
  1 27 32  leaka26       0.03830873  leaka26
  1 27 33  leaka26       0.04971160  leaka26
  1 27 34  leaka26       0.00839406  leaka26
  1 27 35  leaka26       0.00646638  leaka26
  1 27 36  leaka26       0.00400834  leaka26
  1 27 37  leaka26       0.12111478  leaka26
  1 27 38  leaka26       0.12111478  leaka26
  1 27 39  leaka26       0.10298277  leaka26
  1 27 40  leaka26       0.02081686  leaka26
  1 28 29  leaka26  6.83356023E-04  leaka26
  1 28 32  leaka26  9.89336331E-04  leaka26
  1 28 33  leaka26  8.15947490E-04  leaka26
  1 28 36  leaka26  9.38339613E-04  leaka26
  1 28 37  leaka26       0.00576263  leaka26
  1 28 38  leaka26       0.02149002  leaka26
  1 28 39  leaka26       0.00861845  leaka26
  1 28 40  leaka26       0.02883354  leaka26
  1 29 38  leaka26       0.00168289  leaka26
  1 29 39  leaka26       0.00107093  leaka26
  1 29 40  leaka26       0.01317755  leaka26
  1 29 41  leaka26       0.03580990  leaka26
  1 29 42  leaka26       0.00939360  leaka26
  1 30 41  leaka26       0.02324430  leaka26
  1 30 42  leaka26       0.10168746  leaka26
  1 30 43  leaka26       0.02894574  leaka26
  1 31 41  leaka26  9.07741582E-04  leaka26
  1 31 42  leaka26       0.00164209  leaka26
  1 31 43  leaka26       0.01250440  leaka26
  1 31 44  leaka26       0.00799629  leaka26
  1 32 43  leaka26  1.63189498E-04  leaka26
  1 32 44  leaka26       0.02951690  leaka26
  1 33 44  leaka26       0.00214186  leaka26
  1 29 23  leaka53       0.00216000  leaka53
  1 29 24  leaka53       0.00122000  leaka53
  1 29 25  leaka53       0.00144000  leaka53
  1 29 26  leaka53       0.00214000  leaka53
  1 30 23  leaka53       0.01487000  leaka53
  1 30 24  leaka53       0.03027000  leaka53
  1 30 25  leaka53       0.02376000  leaka53
  1 30 26  leaka53       0.04126000  leaka53
  1 30 27  leaka53       0.02326000  leaka53
  1 30 28  leaka53       0.00260000  leaka53
  1 30 29  leaka53       0.00245000  leaka53
  1 30 30  leaka53       0.00263000  leaka53
  1 31 16  leaka53  7.50000000E-04  leaka53
  1 31 22  leaka53  1.40000000E-04  leaka53
  1 31 23  leaka53       0.00211000  leaka53
  1 31 24  leaka53       0.00454000  leaka53
  1 31 25  leaka53       0.01533000  leaka53
  1 31 26  leaka53       0.03283000  leaka53
  1 31 27  leaka53       0.05588000  leaka53
  1 31 28  leaka53       0.04529000  leaka53
  1 31 29  leaka53       0.04196000  leaka53
  1 31 30  leaka53       0.03807000  leaka53
  1 31 31  leaka53       0.01575000  leaka53
  1 31 32  leaka53  2.30000000E-04  leaka53
  1 32 16  leaka53  4.10000000E-04  leaka53
  1 32 17  leaka53       0.00280000  leaka53
  1 32 18  leaka53       0.00699000  leaka53
  1 32 19  leaka53  1.90000000E-04  leaka53
  1 32 23  leaka53       0.00254000  leaka53
  1 32 24  leaka53       0.01911000  leaka53
  1 32 25  leaka53       0.01231000  leaka53
  1 32 26  leaka53       0.03583000  leaka53
  1 32 27  leaka53       0.03637000  leaka53
  1 32 28  leaka53       0.02434000  leaka53
  1 32 29  leaka53       0.03020000  leaka53
  1 32 30  leaka53       0.02827000  leaka53
  1 32 31  leaka53       0.02487000  leaka53
  1 33 18  leaka53  4.70000000E-04  leaka53
  1 33 19  leaka53       0.00140000  leaka53
  1 33 20  leaka53       0.00174000  leaka53
  1 33 21  leaka53       0.00505000  leaka53
  1 33 22  leaka53       0.00510000  leaka53
  1 33 23  leaka53       0.00413000  leaka53
  1 33 24  leaka53       0.00781000  leaka53
  1 33 25  leaka53       0.04030000  leaka53
  1 33 26  leaka53       0.01210000  leaka53
  1 33 27  leaka53       0.02681000  leaka53
  1 33 28  leaka53       0.03605000  leaka53
  1 33 29  leaka53       0.00767000  leaka53
  1 33 30  leaka53       0.02614000  leaka53
  1 33 31  leaka53       0.00760000  leaka53
  1 34 21  leaka53  4.40000000E-04  leaka53
  1 34 22  leaka53  7.10000000E-04  leaka53
  1 34 23  leaka53       0.00185000  leaka53
  1 34 24  leaka53       0.02161000  leaka53
  1 34 25  leaka53       0.01253000  leaka53
  1 34 26  leaka53       0.00562000  leaka53
  1 34 27  leaka53       0.01767000  leaka53
  1 34 28  leaka53       0.01750000  leaka53
  1 34 29  leaka53       0.02027000  leaka53
  1 34 30  leaka53       0.01744000  leaka53
  1 34 31  leaka53       0.00490000  leaka53
  1 35 22  leaka53  2.00000000E-04  leaka53
  1 35 23  leaka53       0.00497000  leaka53
  1 35 24  leaka53       0.00612000  leaka53
  1 35 25  leaka53       0.00436000  leaka53
  1 35 26  leaka53       0.00400000  leaka53
  1 35 27  leaka53       0.00383000  leaka53
  1 35 28  leaka53       0.00188000  leaka53
  1 35 29  leaka53       0.00763000  leaka53
  1 35 30  leaka53       0.00459000  leaka53
  1 35 31  leaka53  4.50000000E-04  leaka53
  1 36 23  leaka53  1.50000000E-04  leaka53
  1 36 24  leaka53       0.00110000  leaka53
  1 36 25  leaka53       0.00529000  leaka53
  1 36 26  leaka53       0.00302000  leaka53
  1 36 27  leaka53       0.00271000  leaka53
  1 36 28  leaka53       0.00308000  leaka53
  1 36 29  leaka53       0.00160000  leaka53
  1 37 24  leaka53  5.90000000E-04  leaka53
  1 37 25  leaka53       0.00876000  leaka53
  1 37 26  leaka53       0.00684000  leaka53
  1 37 27  leaka53  7.10000000E-04  leaka53
  1 37 28  leaka53  4.00000000E-05  leaka53
  1 30 36  leaka59  8.19272610E-04  leaka59
  1 31 32  leaka59       0.00105780  leaka59
  1 31 33  leaka59       0.02301223  leaka59
  1 31 34  leaka59       0.00311116  leaka59
  1 31 35  leaka59       0.02025366  leaka59
  1 31 36  leaka59       0.02771008  leaka59
  1 31 37  leaka59       0.03819470  leaka59
  1 31 38  leaka59       0.02753378  leaka59
  1 31 39  leaka59       0.00410673  leaka59
  1 31 40  leaka59  2.69634024E-04  leaka59
  1 31 41  leaka59       0.00231263  leaka59
  1 32 32  leaka59       0.01221650  leaka59
  1 32 33  leaka59       0.06285584  leaka59
  1 32 34  leaka59       0.12315016  leaka59
  1 32 35  leaka59       0.06766777  leaka59
  1 32 36  leaka59       0.01989069  leaka59
  1 32 37  leaka59       0.03173385  leaka59
  1 32 38  leaka59       0.09808456  leaka59
  1 32 39  leaka59       0.04842005  leaka59
  1 32 40  leaka59       0.02216184  leaka59
  1 32 41  leaka59       0.00276893  leaka59
  1 33 32  leaka59       0.01213353  leaka59
  1 33 33  leaka59       0.02982567  leaka59
  1 33 34  leaka59       0.00127558  leaka59
  1 33 35  leaka59       0.01811733  leaka59
  1 33 36  leaka59       0.01437357  leaka59
  1 33 37  leaka59       0.01193649  leaka59
  1 33 38  leaka59       0.01486098  leaka59
  1 33 39  leaka59       0.08353469  leaka59
  1 33 40  leaka59       0.06781296  leaka59
  1 33 41  leaka59  7.88160992E-04  leaka59
  1 34 33  leaka59       0.00935423  leaka59
  1 34 34  leaka59       0.01610545  leaka59
  1 34 35  leaka59       0.00324598  leaka59
  1 34 36  leaka59       0.02693229  leaka59
  1 34 37  leaka59       0.00580750  leaka59
  1 34 38  leaka59       0.00670974  leaka59
  1 34 39  leaka59       0.01835585  leaka59
  1 34 40  leaka59       0.01634397  leaka59
  1 35 39  leaka59       0.00515416  leaka59
  1 43 18  leaka64       0.00336245  leaka64
  1 43 19  leaka64       0.01125690  leaka64
  1 43 20  leaka64  6.74739124E-04  leaka64
  1 44 18  leaka64       0.00191176  leaka64
  1 44 19  leaka64       0.11365981  leaka64
  1 44 20  leaka64       0.12032011  leaka64
  1 44 21  leaka64       0.01568768  leaka64
  1 45 19  leaka64       0.00914272  leaka64
  1 45 20  leaka64       0.07616680  leaka64
  1 45 21  leaka64       0.05708293  leaka64
  1 45 23  leaka64       0.01032351  leaka64
  1 45 24  leaka64       0.01121192  leaka64
  1 46 19  leaka64       0.00296885  leaka64
  1 46 21  leaka64       0.01071711  leaka64
  1 46 24  leaka64       0.10036744  leaka64
  1 46 25  leaka64  1.12456521E-05  leaka64
  1 47 21  leaka64       0.03306222  leaka64
  1 47 24  leaka64       0.06613568  leaka64
  1 47 25  leaka64       0.02777676  leaka64
  1 47 26  leaka64       0.00359861  leaka64
  1 48 21  leaka64  3.93597822E-04  leaka64
  1 48 22  leaka64       0.01198787  leaka64
  1 48 23  leaka64       0.02942987  leaka64
  1 48 24  leaka64       0.00962628  leaka64
  1 49 22  leaka64       0.00995240  leaka64
  1 49 23  leaka64       0.00324999  leaka64
  1 49 24  leaka64       0.01054842  leaka64
  1 50 23  leaka64       0.00560033  leaka64
  1 50 24  leaka64       0.03301723  leaka64
  1 50 28  leaka64  3.93597822E-04  leaka64
  1 51 24  leaka64       0.03180270  leaka64
  1 51 25  leaka64       0.04562361  leaka64
  1 51 26  leaka64       0.07237702  leaka64
  1 51 27  leaka64       0.00623009  leaka64
  1 51 28  leaka64  7.08476080E-04  leaka64
  1 52 25  leaka64       0.00140571  leaka64
  1 52 26  leaka64       0.02582002  leaka64
  1 53 26  leaka64       0.00574653  leaka64
  1 53 27  leaka64       0.01508042  leaka64
  1 53 28  leaka64       0.00131574  leaka64
  1 57 31  leaka64       0.00413840  leaka64
  1 57 32  leaka64  1.12456521E-04  leaka64
  1 30 38  leaka68       0.05629624  leaka68
  1 30 39  leaka68       0.04153551  leaka68
  1 30 40  leaka68  4.68949279E-04  leaka68
  1 31 38  leaka68       0.00730221  leaka68
  1 31 39  leaka68       0.12429372  leaka68
  1 31 40  leaka68       0.12429372  leaka68
  1 31 41  leaka68       0.12429372  leaka68
  1 31 42  leaka68       0.02023181  leaka68
  1 32 42  leaka68       0.09289662  leaka68
  1 32 43  leaka68       0.09792108  leaka68
  1 33 43  leaka68       0.04872606  leaka68
  1 33 44  leaka68       0.12429372  leaka68
  1 33 45  leaka68  4.91280197E-04  leaka68
  1 34 44  leaka68       0.12429372  leaka68
  1 34 45  leaka68       0.01266163  leaka68
  1 50 23  leaka71       0.12500000  leaka71
  1 50 24  leaka71       0.12500000  leaka71
  1 51 26  leaka71       0.12500000  leaka71
  1 52 26  leaka71       0.12500000  leaka71
  1 52 28  leaka71       0.12500000  leaka71
  1 53 26  leaka71       0.12500000  leaka71
  1 53 27  leaka71       0.12500000  leaka71
  1 53 28  leaka71       0.12500000  leaka71
  1 31 31  leaka75       0.00122005  leaka75
  1 31 32  leaka75  7.50030001E-04  leaka75
  1 31 33  leaka75  5.00020001E-05  leaka75
  1 31 41  leaka75  2.00008000E-05  leaka75
  1 32 31  leaka75  9.50038002E-04  leaka75
  1 32 32  leaka75       0.00152006  leaka75
  1 32 33  leaka75       0.00181007  leaka75
  1 32 34  leaka75  1.70006800E-04  leaka75
  1 32 41  leaka75       0.00496020  leaka75
  1 32 42  leaka75       0.00126005  leaka75
  1 32 43  leaka75  5.40021601E-04  leaka75
  1 33 31  leaka75       0.01935077  leaka75
  1 33 32  leaka75       0.01186047  leaka75
  1 33 33  leaka75       0.01075043  leaka75
  1 33 34  leaka75       0.00223009  leaka75
  1 33 35  leaka75  6.00024001E-04  leaka75
  1 33 36  leaka75       0.00116005  leaka75
  1 33 37  leaka75       0.00227009  leaka75
  1 33 38  leaka75       0.00373015  leaka75
  1 33 39  leaka75       0.00133005  leaka75
  1 33 40  leaka75       0.00963039  leaka75
  1 33 41  leaka75       0.00642026  leaka75
  1 33 42  leaka75       0.00532021  leaka75
  1 33 43  leaka75       0.00263011  leaka75
  1 33 44  leaka75  7.00028001E-05  leaka75
  1 34 30  leaka75  2.40009600E-04  leaka75
  1 34 31  leaka75       0.05018201  leaka75
  1 34 32  leaka75       0.02549102  leaka75
  1 34 33  leaka75       0.05279211  leaka75
  1 34 34  leaka75       0.00524021  leaka75
  1 34 35  leaka75       0.00843034  leaka75
  1 34 36  leaka75       0.00434017  leaka75
  1 34 37  leaka75       0.00491020  leaka75
  1 34 38  leaka75       0.00267011  leaka75
  1 34 39  leaka75       0.00379015  leaka75
  1 34 40  leaka75       0.01103044  leaka75
  1 34 41  leaka75       0.00447018  leaka75
  1 34 42  leaka75       0.00425017  leaka75
  1 34 43  leaka75       0.00488020  leaka75
  1 34 44  leaka75       0.01196048  leaka75
  1 34 45  leaka75  5.30021201E-04  leaka75
  1 35 30  leaka75  2.30009200E-04  leaka75
  1 35 31  leaka75       0.00268011  leaka75
  1 35 32  leaka75       0.04209168  leaka75
  1 35 33  leaka75       0.05972239  leaka75
  1 35 34  leaka75       0.01910076  leaka75
  1 35 35  leaka75       0.01059042  leaka75
  1 35 36  leaka75       0.00885035  leaka75
  1 35 37  leaka75       0.00564023  leaka75
  1 35 38  leaka75  6.10024401E-04  leaka75
  1 35 39  leaka75       0.00548022  leaka75
  1 35 40  leaka75       0.00652026  leaka75
  1 35 41  leaka75       0.00342014  leaka75
  1 35 42  leaka75       0.00337013  leaka75
  1 35 43  leaka75       0.00472019  leaka75
  1 35 44  leaka75       0.00876035  leaka75
  1 35 45  leaka75       0.00989040  leaka75
  1 35 46  leaka75  1.80007200E-04  leaka75
  1 36 27  leaka75  1.10004400E-04  leaka75
  1 36 28  leaka75  1.20004800E-04  leaka75
  1 36 29  leaka75  7.20028801E-04  leaka75
  1 36 30  leaka75       0.01297052  leaka75
  1 36 31  leaka75       0.02168087  leaka75
  1 36 32  leaka75       0.03987159  leaka75
  1 36 33  leaka75       0.02871115  leaka75
  1 36 34  leaka75       0.02206088  leaka75
  1 36 35  leaka75       0.01719069  leaka75
  1 36 36  leaka75       0.02046082  leaka75
  1 36 37  leaka75       0.00790032  leaka75
  1 36 38  leaka75  6.20024801E-04  leaka75
  1 36 39  leaka75  1.70006800E-04  leaka75
  1 36 40  leaka75  2.10008400E-04  leaka75
  1 36 44  leaka75       0.00133005  leaka75
  1 36 45  leaka75       0.00142006  leaka75
  1 36 46  leaka75       0.00251010  leaka75
  1 36 47  leaka75  3.00012000E-04  leaka75
  1 37 24  leaka75       0.00181007  leaka75
  1 37 25  leaka75       0.00227009  leaka75
  1 37 26  leaka75       0.01203048  leaka75
  1 37 27  leaka75       0.00191008  leaka75
  1 37 28  leaka75  9.10036401E-04  leaka75
  1 37 29  leaka75  6.10024401E-04  leaka75
  1 37 30  leaka75  4.60018401E-04  leaka75
  1 37 31  leaka75       0.00606024  leaka75
  1 37 32  leaka75       0.02347094  leaka75
  1 37 33  leaka75       0.00228009  leaka75
  1 37 35  leaka75  4.40017601E-04  leaka75
  1 37 36  leaka75       0.02165087  leaka75
  1 37 37  leaka75       0.00974039  leaka75
  1 37 38  leaka75       0.00766031  leaka75
  1 37 39  leaka75       0.00120005  leaka75
  1 37 40  leaka75  2.60010400E-04  leaka75
  1 37 46  leaka75  7.00028001E-05  leaka75
  1 37 47  leaka75       0.00244010  leaka75
  1 37 48  leaka75       0.00279011  leaka75
  1 37 49  leaka75       0.00232009  leaka75
  1 38 24  leaka75       0.00251010  leaka75
  1 38 25  leaka75       0.00407016  leaka75
  1 38 26  leaka75       0.01235049  leaka75
  1 38 27  leaka75       0.00799032  leaka75
  1 38 28  leaka75  1.20004800E-04  leaka75
  1 38 29  leaka75       0.00322013  leaka75
  1 38 30  leaka75       0.00207008  leaka75
  1 38 31  leaka75       0.01365055  leaka75
  1 38 32  leaka75       0.01723069  leaka75
  1 38 33  leaka75       0.00173007  leaka75
  1 38 37  leaka75  4.30017201E-04  leaka75
  1 38 38  leaka75       0.00535021  leaka75
  1 38 49  leaka75  7.60030401E-04  leaka75
  1 38 50  leaka75  3.50014001E-04  leaka75
  1 39 26  leaka75       0.00861034  leaka75
  1 39 27  leaka75       0.01567063  leaka75
  1 39 28  leaka75       0.00564023  leaka75
  1 39 29  leaka75       0.00426017  leaka75
  1 39 30  leaka75       0.00544022  leaka75
  1 39 31  leaka75       0.00306012  leaka75
  1 39 32  leaka75       0.02294092  leaka75
  1 39 33  leaka75       0.00341014  leaka75
  1 40 26  leaka75  8.00032001E-05  leaka75
  1 40 27  leaka75       0.01882075  leaka75
  1 40 28  leaka75       0.01676067  leaka75
  1 40 29  leaka75       0.00686027  leaka75
  1 40 30  leaka75       0.01885075  leaka75
  1 40 31  leaka75       0.01159046  leaka75
  1 40 32  leaka75       0.01425057  leaka75
  1 40 33  leaka75  2.00008000E-05  leaka75
  1 41 28  leaka75       0.00204008  leaka75
  1 41 29  leaka75       0.01150046  leaka75
  1 41 30  leaka75  4.50018001E-04  leaka75
  1 41 31  leaka75       0.00150006  leaka75
  1 38 24  leaka77       0.00331010  leaka77
  1 38 25  leaka77       0.00706021  leaka77
  1 38 26  leaka77  4.00012000E-05  leaka77
  1 39 24  leaka77       0.00170005  leaka77
  1 39 25  leaka77       0.00348010  leaka77
  1 39 26  leaka77       0.01296039  leaka77
  1 40 23  leaka77  4.10012300E-04  leaka77
  1 40 24  leaka77  7.00021001E-04  leaka77
  1 40 26  leaka77       0.00000000  leaka77
  1 40 27  leaka77       0.00481014  leaka77
  1 40 28  leaka77  1.20003600E-04  leaka77
  1 40 32  leaka77  4.70014100E-04  leaka77
  1 40 33  leaka77  4.30012900E-04  leaka77
  1 41 23  leaka77       0.00226007  leaka77
  1 41 24  leaka77       0.01119034  leaka77
  1 41 25  leaka77       0.00282008  leaka77
  1 41 27  leaka77       0.00284009  leaka77
  1 41 28  leaka77       0.02462074  leaka77
  1 41 29  leaka77       0.01896057  leaka77
  1 41 30  leaka77       0.01380041  leaka77
  1 41 31  leaka77       0.00384012  leaka77
  1 41 32  leaka77       0.00934028  leaka77
  1 41 33  leaka77       0.01723052  leaka77
  1 41 34  leaka77  4.80014400E-04  leaka77
  1 42 24  leaka77       0.00170005  leaka77
  1 42 25  leaka77       0.00746022  leaka77
  1 42 26  leaka77       0.00914027  leaka77
  1 42 27  leaka77       0.00439013  leaka77
  1 42 28  leaka77       0.01452044  leaka77
  1 42 29  leaka77       0.00855026  leaka77
  1 42 30  leaka77       0.01919058  leaka77
  1 42 31  leaka77       0.01525046  leaka77
  1 42 32  leaka77       0.01445043  leaka77
  1 42 33  leaka77       0.00835025  leaka77
  1 43 24  leaka77       0.00208006  leaka77
  1 43 25  leaka77       0.00353011  leaka77
  1 43 26  leaka77       0.00780023  leaka77
  1 43 27  leaka77       0.00607018  leaka77
  1 43 28  leaka77       0.00789024  leaka77
  1 43 29  leaka77       0.00138004  leaka77
  1 43 30  leaka77       0.01593048  leaka77
  1 43 31  leaka77       0.00287009  leaka77
  1 43 32  leaka77       0.00838025  leaka77
  1 43 33  leaka77       0.00787024  leaka77
  1 43 34  leaka77       0.00429013  leaka77
  1 43 35  leaka77       0.00292009  leaka77
  1 43 36  leaka77  2.60007800E-04  leaka77
  1 43 39  leaka77  1.50004500E-04  leaka77
  1 44 24  leaka77       0.00161005  leaka77
  1 44 25  leaka77       0.00547016  leaka77
  1 44 26  leaka77       0.00321010  leaka77
  1 44 27  leaka77       0.00290009  leaka77
  1 44 28  leaka77       0.00442013  leaka77
  1 44 29  leaka77       0.00366011  leaka77
  1 44 30  leaka77       0.00874026  leaka77
  1 44 31  leaka77       0.00896027  leaka77
  1 44 32  leaka77       0.00211006  leaka77
  1 44 33  leaka77       0.00555017  leaka77
  1 44 34  leaka77       0.01212036  leaka77
  1 44 35  leaka77       0.01297039  leaka77
  1 44 36  leaka77       0.00451014  leaka77
  1 44 37  leaka77       0.01036031  leaka77
  1 44 38  leaka77       0.00585018  leaka77
  1 44 39  leaka77       0.00447013  leaka77
  1 44 40  leaka77  7.30021901E-04  leaka77
  1 45 26  leaka77       0.00619019  leaka77
  1 45 27  leaka77       0.00420013  leaka77
  1 45 28  leaka77  8.80026401E-04  leaka77
  1 45 29  leaka77       0.00474014  leaka77
  1 45 30  leaka77       0.00259008  leaka77
  1 45 31  leaka77       0.01549046  leaka77
  1 45 32  leaka77       0.02351071  leaka77
  1 45 33  leaka77       0.01458044  leaka77
  1 45 34  leaka77       0.00248007  leaka77
  1 45 36  leaka77       0.00141004  leaka77
  1 45 37  leaka77       0.00429013  leaka77
  1 45 38  leaka77       0.03232097  leaka77
  1 45 39  leaka77       0.01741052  leaka77
  1 45 40  leaka77  6.40019201E-04  leaka77
  1 46 26  leaka77       0.00223007  leaka77
  1 46 27  leaka77       0.00577017  leaka77
  1 46 28  leaka77       0.00283008  leaka77
  1 46 29  leaka77       0.01167035  leaka77
  1 46 30  leaka77       0.01507045  leaka77
  1 46 31  leaka77       0.01055032  leaka77
  1 46 32  leaka77       0.00928028  leaka77
  1 46 33  leaka77  9.40028201E-04  leaka77
  1 46 37  leaka77  5.30015900E-04  leaka77
  1 46 39  leaka77  2.10006300E-04  leaka77
  1 47 27  leaka77  5.00015000E-05  leaka77
  1 47 28  leaka77       0.01466044  leaka77
  1 47 29  leaka77       0.01053032  leaka77
  1 47 31  leaka77  1.80005400E-04  leaka77
  1 47 32  leaka77       0.00441013  leaka77
  1 48 28  leaka77       0.00346010  leaka77
  1 48 29  leaka77       0.00690021  leaka77
  1 48 30  leaka77       0.01609048  leaka77
  1 48 31  leaka77       0.00580017  leaka77
  1 48 32  leaka77  8.80026401E-04  leaka77
  1 49 28  leaka77       0.00862026  leaka77
  1 49 29  leaka77       0.01851056  leaka77
  1 49 30  leaka77       0.06787204  leaka77
  1 49 31  leaka77       0.01019031  leaka77
  1 50 28  leaka77       0.00182005  leaka77
  1 50 29  leaka77       0.00322010  leaka77
  1 50 30  leaka77       0.01289039  leaka77
  1 50 31  leaka77       0.00765023  leaka77
  1 51 28  leaka77       0.00718022  leaka77
  1 51 29  leaka77       0.02330070  leaka77
  1 51 30  leaka77       0.02407072  leaka77
  1 51 31  leaka77       0.00354011  leaka77
  1 52 28  leaka77  9.80029401E-04  leaka77
  1 52 29  leaka77       0.01987060  leaka77
  1 52 30  leaka77       0.00944028  leaka77
  1 52 31  leaka77       0.02257068  leaka77
  1 52 32  leaka77       0.00162005  leaka77
  1 53 28  leaka77  8.70026101E-04  leaka77
  1 53 29  leaka77       0.00678020  leaka77
  1 53 30  leaka77       0.01398042  leaka77
  1 53 31  leaka77       0.00805024  leaka77