# File generated by Flopy version 3.3.2 on 05/05/2022 at 16:48:41.
BEGIN griddata
  strt
    CONSTANT    3191.97879065
END griddata

