# File generated by Flopy version 3.3.2 on 05/05/2022 at 16:49:43.
BEGIN options
  auxiliary  multiplier
  AUXMULTNAME  multiplier
  BOUNDNAMES
  SAVE_FLOWS
  TS6  FILEIN  mf6-tv_hist-canal_leakage_rates-b-area_dist.ts
END options

BEGIN dimensions
  MAXBOUND  2339
END dimensions

BEGIN period  1
  1 5 9  leakb97       0.07013146  leakb97
  1 5 10  leakb94       0.02736512  leakb94
  1 5 10  leakb97       0.06339794  leakb97
  1 5 11  leakb94       0.03081556  leakb94
  1 5 12  leakb94       0.05545557  leakb94
  1 5 13  leakb94       0.01979076  leakb94
  1 6 9  leakb97       0.00111690  leakb97
  1 6 10  leakb94       0.02341734  leakb94
  1 6 10  leakb97       0.01633562  leakb97
  1 6 11  leakb94       0.01788421  leakb94
  1 6 11  leakb97       0.00454794  leakb97
  1 6 12  leakb94       0.04260712  leakb94
  1 6 12  leakb97       0.00126957  leakb97
  1 6 13  leakb94       0.03597566  leakb94
  1 6 13  leakb97       0.00221772  leakb97
  1 6 14  leakb35       1.00000000  leakb35
  1 6 14  leakb94       0.04476234  leakb94
  1 7 9  leakb97       0.00122135  leakb97
  1 7 10  leakb97       0.01010831  leakb97
  1 7 11  leakb97       0.00856555  leakb97
  1 7 12  leakb94       0.00424828  leakb94
  1 7 12  leakb97       0.01452769  leakb97
  1 7 13  leakb94       0.00967778  leakb94
  1 7 13  leakb97       0.01365988  leakb97
  1 7 14  leakb94       0.01745938  leakb94
  1 7 14  leakb97       0.00691029  leakb97
  1 7 15  leakb94       0.02930275  leakb94
  1 7 15  leakb95       0.04833624  leakb95
  1 7 15  leakb97  7.71381738E-04  leakb97
  1 7 16  leakb94       0.11863574  leakb94
  1 7 16  leakb95       0.05331813  leakb95
  1 8 9  leakb97       0.01686326  leakb97
  1 8 10  leakb97       0.00488006  leakb97
  1 8 11  leakb97       0.00827628  leakb97
  1 8 12  leakb97       0.01484910  leakb97
  1 8 13  leakb97       0.01451162  leakb97
  1 8 14  leakb97       0.01414200  leakb97
  1 8 15  leakb94       0.00283909  leakb94
  1 8 15  leakb97       0.01239032  leakb97
  1 8 16  leakb94       0.01255142  leakb94
  1 8 16  leakb97       0.00290875  leakb97
  1 8 17  leakb94       0.03705327  leakb94
  1 9 9  leakb97       0.01650436  leakb97
  1 9 10  leakb97       0.00811022  leakb97
  1 9 11  leakb97       0.00734420  leakb97
  1 9 12  leakb97       0.00736027  leakb97
  1 9 13  leakb97       0.00873429  leakb97
  1 9 14  leakb97       0.00798702  leakb97
  1 9 15  leakb97       0.01399736  leakb97
  1 9 16  leakb94  3.73019500E-04  leakb94
  1 9 16  leakb97       0.01108861  leakb97
  1 9 17  leakb94       0.09850823  leakb94
  1 9 17  leakb97       0.00297303  leakb97
  1 9 18  leakb94       0.06635602  leakb94
  1 9 18  leakb95       0.01779248  leakb95
  1 10 8  leakb97       0.01319384  leakb97
  1 10 9  leakb97       0.03124096  leakb97
  1 10 9  leakb102       0.00000000  leakb102
  1 10 10  leakb97       0.03499073  leakb97
  1 10 10  leakb102       0.00268719  leakb102
  1 10 11  leakb97       0.01009224  leakb97
  1 10 11  leakb102  8.28760501E-04  leakb102
  1 10 12  leakb97       0.01089577  leakb97
  1 10 13  leakb97       0.00618712  leakb97
  1 10 14  leakb97       0.00677370  leakb97
  1 10 15  leakb97       0.00937711  leakb97
  1 10 16  leakb97       0.00867001  leakb97
  1 10 17  leakb94  4.14466111E-05  leakb94
  1 10 17  leakb97       0.00527914  leakb97
  1 10 18  leakb94       0.05009514  leakb94
  1 10 18  leakb97       0.00567287  leakb97
  1 10 19  leakb94       0.10812592  leakb94
  1 10 19  leakb95       0.00616806  leakb95
  1 11 8  leakb97       0.03987079  leakb97
  1 11 9  leakb97       0.05800630  leakb97
  1 11 9  leakb102       0.00534927  leakb102
  1 11 10  leakb102       0.01338574  leakb102
  1 11 11  leakb97       0.00247485  leakb97
  1 11 11  leakb102       0.01228072  leakb102
  1 11 12  leakb97       0.00329444  leakb97
  1 11 12  leakb102       0.01112548  leakb102
  1 11 13  leakb97       0.00392119  leakb97
  1 11 13  leakb102       0.01160265  leakb102
  1 11 14  leakb97       0.00713528  leakb97
  1 11 14  leakb102       0.00816204  leakb102
  1 11 15  leakb97       0.00943336  leakb97
  1 11 15  leakb102       0.00374198  leakb102
  1 11 16  leakb97       0.00605053  leakb97
  1 11 16  leakb102  3.01367455E-04  leakb102
  1 11 17  leakb97       0.00837271  leakb97
  1 11 17  leakb102  1.50683727E-04  leakb102
  1 11 18  leakb94  7.46038999E-04  leakb94
  1 11 18  leakb97       0.00660496  leakb97
  1 11 19  leakb94       0.06552709  leakb94
  1 11 19  leakb95       0.01496545  leakb95
  1 11 19  leakb97       0.00239450  leakb97
  1 11 20  leakb94       0.08038570  leakb94
  1 11 20  leakb95       0.02631310  leakb95
  1 11 21  leakb95       0.00751238  leakb95
  1 11 22  leakb95       0.00909393  leakb95
  1 12 8  leakb97       0.03529071  leakb97
  1 12 8  leakb102       0.00128081  leakb102
  1 12 9  leakb97       0.01502587  leakb97
  1 12 9  leakb102       0.01245652  leakb102
  1 12 10  leakb102       0.00909125  leakb102
  1 12 11  leakb102       0.01062320  leakb102
  1 12 12  leakb81       0.03057401  leakb81
  1 12 12  leakb102       0.01067343  leakb102
  1 12 13  leakb81       0.00264775  leakb81
  1 12 13  leakb102       0.00637894  leakb102
  1 12 14  leakb102       0.01122594  leakb102
  1 12 15  leakb102       0.01288346  leakb102
  1 12 16  leakb97       0.00416225  leakb97
  1 12 16  leakb102       0.01225561  leakb102
  1 12 17  leakb97       0.00964227  leakb97
  1 12 17  leakb102       0.00366664  leakb102
  1 12 18  leakb97       0.00825218  leakb97
  1 12 19  leakb95       0.01585508  leakb95
  1 12 19  leakb97       0.00602642  leakb97
  1 12 20  leakb95       0.03805614  leakb95
  1 12 21  leakb95       0.01154534  leakb95
  1 12 22  leakb95       0.00726526  leakb95
  1 12 23  leakb95       0.01719940  leakb95
  1 12 24  leakb95       0.04345319  leakb95
  1 13 8  leakb97       0.00335872  leakb97
  1 13 8  leakb102       0.00208446  leakb102
  1 13 9  leakb102       0.01059809  leakb102
  1 13 10  leakb102       0.00941773  leakb102
  1 13 11  leakb102       0.01145196  leakb102
  1 13 12  leakb81       0.01758505  leakb81
  1 13 12  leakb102       0.00966887  leakb102
  1 13 13  leakb81       0.00284758  leakb81
  1 13 13  leakb102  4.26937228E-04  leakb102
  1 13 14  leakb102  6.27848864E-04  leakb102
  1 13 15  leakb81  3.49702753E-04  leakb81
  1 13 15  leakb102       0.00607758  leakb102
  1 13 16  leakb97  4.82113586E-04  leakb97
  1 13 16  leakb102       0.01290857  leakb102
  1 13 17  leakb97       0.00740848  leakb97
  1 13 17  leakb102       0.00786067  leakb102
  1 13 18  leakb97       0.00896731  leakb97
  1 13 18  leakb102       0.00454563  leakb102
  1 13 19  leakb95       0.00850085  leakb95
  1 13 19  leakb97       0.00699065  leakb97
  1 13 19  leakb102  6.02734910E-04  leakb102
  1 13 20  leakb95       0.02623402  leakb95
  1 13 20  leakb97       0.00415421  leakb97
  1 13 21  leakb95       0.01944323  leakb95
  1 13 21  leakb97       0.00104458  leakb97
  1 13 22  leakb95       0.01133447  leakb95
  1 13 23  leakb95       0.00469194  leakb95
  1 13 24  leakb95       0.01421421  leakb95
  1 13 25  leakb95       0.01441191  leakb95
  1 13 26  leakb95       0.00783858  leakb95
  1 13 27  leakb95       0.01181223  leakb95
  1 13 28  leakb95       0.03312367  leakb95
  1 13 34  leakb95       0.00379573  leakb95
  1 13 34  leakb102       0.00236071  leakb102
  1 14 8  leakb97       0.01537942  leakb97
  1 14 8  leakb102       0.00193377  leakb102
  1 14 9  leakb102       0.01019627  leakb102
  1 14 10  leakb102       0.00748396  leakb102
  1 14 11  leakb102       0.00750907  leakb102
  1 14 12  leakb81       0.02702703  leakb81
  1 14 12  leakb102       0.00934239  leakb102
  1 14 13  leakb81       0.00799321  leakb81
  1 14 13  leakb102  4.01823273E-04  leakb102
  1 14 15  leakb81       0.00589499  leakb81
  1 14 15  leakb102       0.00143150  leakb102
  1 14 16  leakb81       0.00304741  leakb81
  1 14 16  leakb102       0.00833783  leakb102
  1 14 17  leakb81       0.00189839  leakb81
  1 14 17  leakb102       0.01228072  leakb102
  1 14 18  leakb102       0.01155242  leakb102
  1 14 19  leakb97       0.00211326  leakb97
  1 14 19  leakb102       0.01195424  leakb102
  1 14 20  leakb97       0.00440330  leakb97
  1 14 20  leakb102       0.00560041  leakb102
  1 14 21  leakb95       0.01897865  leakb95
  1 14 21  leakb96       0.01757573  leakb96
  1 14 21  leakb97       0.00907981  leakb97
  1 14 22  leakb95       0.02886336  leakb95
  1 14 22  leakb96       0.01696024  leakb96
  1 14 23  leakb95       0.01167714  leakb95
  1 14 24  leakb95       0.00564747  leakb95
  1 14 25  leakb95       0.00805604  leakb95
  1 14 26  leakb95       0.01320597  leakb95
  1 14 27  leakb95       0.01445145  leakb95
  1 14 28  leakb95       0.01415491  leakb95
  1 14 29  leakb95       0.01321586  leakb95
  1 14 30  leakb95       0.01140696  leakb95
  1 14 31  leakb95       0.01245474  leakb95
  1 14 32  leakb95       0.01401652  leakb95
  1 14 33  leakb95       0.00815489  leakb95
  1 14 33  leakb96  5.47104563E-05  leakb96
  1 14 34  leakb95       0.01318620  leakb95
  1 14 34  leakb96       0.00162764  leakb96
  1 14 34  leakb102       0.02714818  leakb102
  1 14 35  leakb93       0.00245152  leakb93
  1 14 35  leakb95  1.58155381E-04  leakb95
  1 14 35  leakb101       0.00245152  leakb101
  1 14 35  leakb102       0.00532416  leakb102
  1 15 8  leakb97       0.00139813  leakb97
  1 15 8  leakb102       0.00976933  leakb102
  1 15 9  leakb102       0.01130128  leakb102
  1 15 10  leakb102       0.01290857  leakb102
  1 15 11  leakb102       0.00683100  leakb102
  1 15 12  leakb81       0.01089074  leakb81
  1 15 12  leakb102       0.00256162  leakb102
  1 15 13  leakb81       0.00159864  leakb81
  1 15 16  leakb102       0.00168263  leakb102
  1 15 17  leakb81       0.00000000  leakb81
  1 15 17  leakb102       0.00233560  leakb102
  1 15 18  leakb102       0.00572598  leakb102
  1 15 19  leakb93  8.85272136E-04  leakb93
  1 15 19  leakb101  8.85272136E-04  leakb101
  1 15 19  leakb102       0.00610269  leakb102
  1 15 20  leakb93       0.00238342  leakb93
  1 15 20  leakb97  7.87452190E-04  leakb97
  1 15 20  leakb101       0.00238342  leakb101
  1 15 20  leakb102       0.00465864  leakb102
  1 15 21  leakb96       0.02143966  leakb96
  1 15 21  leakb97       0.00324623  leakb97
  1 15 21  leakb102       0.00361641  leakb102
  1 15 22  leakb95       0.00517959  leakb95
  1 15 22  leakb96       0.02756723  leakb96
  1 15 23  leakb95       0.02279414  leakb95
  1 15 23  leakb96       0.02909229  leakb96
  1 15 24  leakb95       0.02526532  leakb95
  1 15 24  leakb96       0.01181746  leakb96
  1 15 25  leakb95       0.01033282  leakb95
  1 15 26  leakb95       0.00850085  leakb95
  1 15 27  leakb95       0.01435260  leakb95
  1 15 28  leakb95       0.01417468  leakb95
  1 15 29  leakb95       0.01298851  leakb95
  1 15 30  leakb95       0.01385837  leakb95
  1 15 31  leakb95       0.01453053  leakb95
  1 15 32  leakb95       0.00767054  leakb95
  1 15 32  leakb96  1.50453755E-04  leakb96
  1 15 33  leakb95       0.00429985  leakb95
  1 15 33  leakb96       0.00876735  leakb96
  1 15 33  leakb102       0.01896104  leakb102
  1 15 34  leakb95       0.00614829  leakb95
  1 15 34  leakb96       0.00440419  leakb96
  1 15 34  leakb102       0.04317089  leakb102
  1 15 35  leakb93       0.00541378  leakb93
  1 15 35  leakb101       0.00541378  leakb101
  1 15 35  leakb102       0.00811181  leakb102
  1 16 7  leakb25       0.00599820  leakb25
  1 16 7  leakb97       0.00895124  leakb97
  1 16 8  leakb25       0.00364891  leakb25
  1 16 8  leakb97  8.03522643E-04  leakb97
  1 16 8  leakb102       0.00989490  leakb102
  1 16 9  leakb25       0.00404879  leakb25
  1 16 9  leakb102       0.01310948  leakb102
  1 16 10  leakb81       0.01473747  leakb81
  1 16 10  leakb102       0.00527393  leakb102
  1 16 11  leakb81       0.04296348  leakb81
  1 16 11  leakb102       0.00602735  leakb102
  1 16 12  leakb81       0.05795074  leakb81
  1 16 12  leakb102       0.00690634  leakb102
  1 16 13  leakb81       0.01348853  leakb81
  1 16 13  leakb102  4.26937228E-04  leakb102
  1 16 18  leakb102  1.00455818E-04  leakb102
  1 16 19  leakb93       0.00299631  leakb93
  1 16 19  leakb101       0.00299631  leakb101
  1 16 19  leakb102  2.51139546E-04  leakb102
  1 16 20  leakb93       0.00231533  leakb93
  1 16 20  leakb101       0.00231533  leakb101
  1 16 20  leakb102  1.50683727E-04  leakb102
  1 16 21  leakb93       0.00320060  leakb93
  1 16 21  leakb96       0.00626435  leakb96
  1 16 21  leakb97       0.00318195  leakb97
  1 16 21  leakb101       0.00320060  leakb101
  1 16 21  leakb102       0.01845876  leakb102
  1 16 22  leakb96       0.01683714  leakb96
  1 16 22  leakb97       0.00541574  leakb97
  1 16 22  leakb102       0.00871454  leakb102
  1 16 23  leakb96       0.03296305  leakb96
  1 16 23  leakb97  6.58888567E-04  leakb97
  1 16 24  leakb95       0.00865901  leakb95
  1 16 24  leakb96       0.02156960  leakb96
  1 16 25  leakb95       0.01784190  leakb95
  1 16 25  leakb96       0.01230985  leakb96
  1 16 26  leakb95       0.01263266  leakb95
  1 16 26  leakb96       0.00400754  leakb96
  1 16 27  leakb95       0.01306759  leakb95
  1 16 27  leakb96       0.03070624  leakb96
  1 16 28  leakb95       0.01423398  leakb95
  1 16 29  leakb95       0.01541026  leakb95
  1 16 30  leakb95       0.01752559  leakb95
  1 16 31  leakb95       0.01747617  leakb95
  1 16 31  leakb96  6.56525476E-04  leakb96
  1 16 31  leakb97       0.00197667  leakb97
  1 16 32  leakb95       0.00481385  leakb95
  1 16 32  leakb96       0.01330832  leakb96
  1 16 32  leakb97       0.00297303  leakb97
  1 16 33  leakb96       0.01228250  leakb96
  1 16 33  leakb102       0.03993119  leakb102
  1 16 34  leakb93       0.00633310  leakb93
  1 16 34  leakb101       0.00633310  leakb101
  1 16 34  leakb102       0.02639477  leakb102
  1 16 35  leakb93       0.00468173  leakb93
  1 16 35  leakb101       0.00468173  leakb101
  1 16 35  leakb102  5.02279091E-04  leakb102
  1 17 7  leakb25       0.00394882  leakb25
  1 17 7  leakb62       0.01914904  leakb62
  1 17 8  leakb25       0.02279316  leakb25
  1 17 8  leakb102       0.00645429  leakb102
  1 17 9  leakb25       0.01309607  leakb25
  1 17 9  leakb102       0.00710725  leakb102
  1 17 10  leakb81       0.00189839  leakb81
  1 17 10  leakb102       0.00326481  leakb102
  1 17 11  leakb81       0.00989159  leakb81
  1 17 11  leakb102  7.28304682E-04  leakb102
  1 17 12  leakb81       0.00544537  leakb81
  1 17 12  leakb102  5.77620955E-04  leakb102
  1 17 13  leakb81       0.03152321  leakb81
  1 17 13  leakb102  6.02734910E-04  leakb102
  1 17 17  leakb05  8.49872519E-04  leakb05
  1 17 17  leakb81       0.00000000  leakb81
  1 17 18  leakb05       0.00219967  leakb05
  1 17 19  leakb05       0.00409939  leakb05
  1 17 19  leakb93       0.00653739  leakb93
  1 17 19  leakb101       0.00653739  leakb101
  1 17 20  leakb05       0.00524921  leakb05
  1 17 20  leakb93       0.01797783  leakb93
  1 17 20  leakb101       0.01797783  leakb101
  1 17 21  leakb93  2.72391426E-04  leakb93
  1 17 21  leakb101  2.72391426E-04  leakb101
  1 17 21  leakb102  2.51139546E-04  leakb102
  1 17 22  leakb93       0.00806960  leakb93
  1 17 22  leakb97  3.21409057E-04  leakb97
  1 17 22  leakb101       0.00806960  leakb101
  1 17 22  leakb102       0.01270766  leakb102
  1 17 23  leakb93       0.00725242  leakb93
  1 17 23  leakb96       0.01374600  leakb96
  1 17 23  leakb97       0.00441937  leakb97
  1 17 23  leakb101       0.00725242  leakb101
  1 17 23  leakb102       0.03068925  leakb102
  1 17 24  leakb96       0.02120030  leakb96
  1 17 24  leakb97       0.00620319  leakb97
  1 17 24  leakb102       0.00597712  leakb102
  1 17 25  leakb95       0.01022079  leakb95
  1 17 25  leakb96       0.02150121  leakb96
  1 17 25  leakb97       0.00641211  leakb97
  1 17 26  leakb95       0.00288634  leakb95
  1 17 26  leakb96       0.03011811  leakb96
  1 17 27  leakb95       0.00247118  leakb95
  1 17 27  leakb96       0.06812820  leakb96
  1 17 28  leakb95       0.00998356  leakb95
  1 17 28  leakb96       0.01772619  leakb96
  1 17 29  leakb95       0.01164419  leakb95
  1 17 29  leakb96       0.00562150  leakb96
  1 17 30  leakb95       0.00895555  leakb95
  1 17 30  leakb96       0.00860322  leakb96
  1 17 30  leakb97       0.00548002  leakb97
  1 17 31  leakb95       0.01198027  leakb95
  1 17 31  leakb96       0.01895717  leakb96
  1 17 31  leakb97       0.00944943  leakb97
  1 17 32  leakb96       0.02005138  leakb96
  1 17 33  leakb96       0.00686616  leakb96
  1 17 33  leakb102       0.03747002  leakb102
  1 17 34  leakb93       0.00418802  leakb93
  1 17 34  leakb101       0.00418802  leakb101
  1 17 34  leakb102       0.00745884  leakb102
  1 17 38  leakb93  2.38342498E-04  leakb93
  1 17 38  leakb101  2.38342498E-04  leakb101
  1 18 6  leakb25       0.00194942  leakb25
  1 18 6  leakb62       0.43397830  leakb62
  1 18 7  leakb25       0.01859442  leakb25
  1 18 7  leakb62       0.15894205  leakb62
  1 18 7  leakb97       0.03639958  leakb97
  1 18 8  leakb25       0.02859142  leakb25
  1 18 8  leakb102  4.77165137E-04  leakb102
  1 18 9  leakb25       0.00399880  leakb25
  1 18 9  leakb102       0.00798624  leakb102
  1 18 10  leakb81       0.01708548  leakb81
  1 18 10  leakb102       0.00228537  leakb102
  1 18 11  leakb81       0.06599391  leakb81
  1 18 12  leakb81       0.04316331  leakb81
  1 18 16  leakb05  9.99850022E-05  leakb05
  1 18 16  leakb81       0.00119898  leakb81
  1 18 17  leakb05       0.00234965  leakb05
  1 18 17  leakb81       0.01663586  leakb81
  1 18 18  leakb05       0.00754887  leakb05
  1 18 18  leakb81       0.00879253  leakb81
  1 18 19  leakb05       0.00984852  leakb05
  1 18 19  leakb93       0.00633310  leakb93
  1 18 19  leakb101       0.00633310  leakb101
  1 18 20  leakb05       0.00324951  leakb05
  1 18 20  leakb93       0.00725242  leakb93
  1 18 20  leakb101       0.00725242  leakb101
  1 18 21  leakb05       0.00000000  leakb05
  1 18 22  leakb05  4.49932510E-04  leakb05
  1 18 23  leakb93  6.80978566E-05  leakb93
  1 18 23  leakb101  6.80978566E-05  leakb101
  1 18 23  leakb102  5.02279091E-05  leakb102
  1 18 24  leakb93  3.40489283E-04  leakb93
  1 18 24  leakb97  7.71381738E-04  leakb97
  1 18 24  leakb101  3.40489283E-04  leakb101
  1 18 24  leakb102       0.00494745  leakb102
  1 18 25  leakb93       0.00265582  leakb93
  1 18 25  leakb96       0.00157293  leakb96
  1 18 25  leakb97       0.00191238  leakb97
  1 18 25  leakb101       0.00265582  leakb101
  1 18 25  leakb102       0.02795183  leakb102
  1 18 26  leakb93       0.00463065  leakb93
  1 18 26  leakb96       0.00652878  leakb96
  1 18 26  leakb97       0.00323016  leakb97
  1 18 26  leakb101       0.00463065  leakb101
  1 18 26  leakb102       0.02993583  leakb102
  1 18 27  leakb96       0.02223296  leakb96
  1 18 27  leakb97       0.00208916  leakb97
  1 18 28  leakb95  1.97694226E-04  leakb95
  1 18 28  leakb96       0.00801964  leakb96
  1 18 29  leakb96       0.01780825  leakb96
  1 18 30  leakb96       0.01585235  leakb96
  1 18 31  leakb96       0.01938118  leakb96
  1 18 32  leakb96       0.02058481  leakb96
  1 18 32  leakb102       0.00404335  leakb102
  1 18 33  leakb93  1.02146785E-04  leakb93
  1 18 33  leakb96       0.00745430  leakb96
  1 18 33  leakb101  1.02146785E-04  leakb101
  1 18 33  leakb102       0.02672125  leakb102
  1 18 37  leakb93       0.00898892  leakb93
  1 18 37  leakb101       0.00898892  leakb101
  1 19 6  leakb25       0.01819454  leakb25
  1 19 6  leakb62       0.14034298  leakb62
  1 19 6  leakb97       0.06728699  leakb97
  1 19 7  leakb25       0.02719184  leakb25
  1 19 8  leakb25       0.02139358  leakb25
  1 19 8  leakb102       0.00607758  leakb102
  1 19 9  leakb81       0.00239796  leakb81
  1 19 9  leakb102       0.01260721  leakb102
  1 19 10  leakb81       0.04995754  leakb81
  1 19 10  leakb102       0.00592689  leakb102
  1 19 11  leakb81       0.06609382  leakb81
  1 19 12  leakb81       0.01278913  leakb81
  1 19 15  leakb81       0.00000000  leakb81
  1 19 17  leakb05       0.00329951  leakb05
  1 19 17  leakb81  4.99575361E-04  leakb81
  1 19 18  leakb05       0.00919862  leakb05
  1 19 19  leakb05       0.00759886  leakb05
  1 19 20  leakb05       0.00224966  leakb05
  1 19 20  leakb93       0.00861438  leakb93
  1 19 20  leakb101       0.00861438  leakb101
  1 19 21  leakb05       0.00109984  leakb05
  1 19 21  leakb93       0.00194079  leakb93
  1 19 21  leakb101       0.00194079  leakb101
  1 19 22  leakb05       0.00314953  leakb05
  1 19 22  leakb93       0.00000000  leakb93
  1 19 22  leakb101       0.00000000  leakb101
  1 19 26  leakb93  6.80978566E-05  leakb93
  1 19 26  leakb97  2.08915887E-04  leakb97
  1 19 26  leakb101  6.80978566E-05  leakb101
  1 19 26  leakb102       0.00205934  leakb102
  1 19 27  leakb93  3.74538211E-04  leakb93
  1 19 27  leakb96       0.01613958  leakb96
  1 19 27  leakb97       0.00263555  leakb97
  1 19 27  leakb101  3.74538211E-04  leakb101
  1 19 27  leakb102       0.02004094  leakb102
  1 19 28  leakb96       0.00733120  leakb96
  1 19 28  leakb97       0.00173561  leakb97
  1 19 28  leakb102       0.01632407  leakb102
  1 19 29  leakb96       0.02061216  leakb96
  1 19 29  leakb97  1.60704529E-04  leakb97
  1 19 29  leakb102       0.00288810  leakb102
  1 19 30  leakb96       0.01704231  leakb96
  1 19 30  leakb97  2.41056793E-04  leakb97
  1 19 30  leakb102       0.00125570  leakb102
  1 19 31  leakb93  5.78831781E-04  leakb93
  1 19 31  leakb96       0.01449827  leakb96
  1 19 31  leakb101  5.78831781E-04  leakb101
  1 19 31  leakb102       0.01165287  leakb102
  1 19 32  leakb93       0.00238342  leakb93
  1 19 32  leakb96       0.00623699  leakb96
  1 19 32  leakb101       0.00238342  leakb101
  1 19 32  leakb102       0.01913683  leakb102
  1 19 33  leakb93       0.00153220  leakb93
  1 19 33  leakb101       0.00153220  leakb101
  1 19 33  leakb102       0.00236071  leakb102
  1 19 36  leakb93       0.02048043  leakb93
  1 19 36  leakb101       0.02048043  leakb101
  1 19 37  leakb93       0.00102147  leakb93
  1 19 37  leakb101       0.00102147  leakb101
  1 20 5  leakb88       0.00114676  leakb88
  1 20 6  leakb25       0.01464561  leakb25
  1 20 6  leakb88       0.00236750  leakb88
  1 20 7  leakb25       0.02809157  leakb25
  1 20 8  leakb05       0.00229966  leakb05
  1 20 8  leakb25       0.01199640  leakb25
  1 20 8  leakb102       0.00871454  leakb102
  1 20 9  leakb05       0.00364945  leakb05
  1 20 9  leakb81       0.02273068  leakb81
  1 20 9  leakb102       0.00705702  leakb102
  1 20 10  leakb05       0.00384942  leakb05
  1 20 10  leakb81       0.01958335  leakb81
  1 20 10  leakb102       0.00115524  leakb102
  1 20 11  leakb05       0.00509924  leakb05
  1 20 11  leakb81       0.08013189  leakb81
  1 20 12  leakb05       0.00369945  leakb05
  1 20 12  leakb81       0.06394565  leakb81
  1 20 13  leakb81  8.49278114E-04  leakb81
  1 20 15  leakb81       0.04491182  leakb81
  1 20 16  leakb81       0.01408803  leakb81
  1 20 17  leakb81  5.99490433E-04  leakb81
  1 20 18  leakb05       0.00194971  leakb05
  1 20 18  leakb81       0.01149023  leakb81
  1 20 19  leakb05       0.01079838  leakb05
  1 20 20  leakb05       0.00444933  leakb05
  1 20 20  leakb93       0.00115766  leakb93
  1 20 20  leakb101       0.00115766  leakb101
  1 20 21  leakb05       0.00399940  leakb05
  1 20 21  leakb93       0.00646930  leakb93
  1 20 21  leakb101       0.00646930  leakb101
  1 20 22  leakb05       0.00724891  leakb05
  1 20 22  leakb93       0.00606071  leakb93
  1 20 22  leakb101       0.00606071  leakb101
  1 20 24  leakb93       0.00292821  leakb93
  1 20 24  leakb101       0.00292821  leakb101
  1 20 25  leakb93  3.40489283E-04  leakb93
  1 20 25  leakb101  3.40489283E-04  leakb101
  1 20 28  leakb102       0.00298856  leakb102
  1 20 29  leakb93       0.00340489  leakb93
  1 20 29  leakb96       0.00161396  leakb96
  1 20 29  leakb97       0.00178382  leakb97
  1 20 29  leakb101       0.00340489  leakb101
  1 20 29  leakb102       0.01358665  leakb102
  1 20 30  leakb93       0.00398372  leakb93
  1 20 30  leakb96  6.56525476E-04  leakb96
  1 20 30  leakb97  4.49972680E-04  leakb97
  1 20 30  leakb101       0.00398372  leakb101
  1 20 30  leakb102       0.01280812  leakb102
  1 20 31  leakb93       0.00177054  leakb93
  1 20 31  leakb101       0.00177054  leakb101
  1 20 31  leakb102       0.00251140  leakb102
  1 20 33  leakb93  6.80978566E-05  leakb93
  1 20 33  leakb101  6.80978566E-05  leakb101
  1 20 34  leakb93  4.08587140E-04  leakb93
  1 20 34  leakb101  4.08587140E-04  leakb101
  1 20 36  leakb93       0.08025332  leakb93
  1 20 36  leakb101       0.08025332  leakb101
  1 20 37  leakb93       0.02492382  leakb93
  1 20 37  leakb101       0.02492382  leakb101
  1 21 5  leakb62       0.01579921  leakb62
  1 21 5  leakb88       0.01893071  leakb88
  1 21 6  leakb25  3.49895031E-04  leakb25
  1 21 6  leakb88       0.01568465  leakb88
  1 21 7  leakb25       0.01504549  leakb25
  1 21 7  leakb88       0.00288538  leakb88
  1 21 8  leakb05  8.99865020E-04  leakb05
  1 21 8  leakb25       0.02834150  leakb25
  1 21 9  leakb05       0.00664900  leakb05
  1 21 9  leakb25       0.02434270  leakb25
  1 21 10  leakb05       0.01174824  leakb05
  1 21 10  leakb25       0.00324903  leakb25
  1 21 11  leakb05       0.00689897  leakb05
  1 21 11  leakb81       0.00389669  leakb81
  1 21 12  leakb05       0.00584912  leakb05
  1 21 12  leakb81       0.07733427  leakb81
  1 21 13  leakb81       0.00419643  leakb81
  1 21 16  leakb05       0.00174974  leakb05
  1 21 16  leakb81       0.01743518  leakb81
  1 21 17  leakb05       0.00159976  leakb05
  1 21 17  leakb81       0.04136484  leakb81
  1 21 18  leakb05       0.00384942  leakb05
  1 21 18  leakb81       0.00779338  leakb81
  1 21 19  leakb05       0.00864870  leakb05
  1 21 20  leakb05       0.00974854  leakb05
  1 21 21  leakb05       0.00979853  leakb05
  1 21 22  leakb05       0.00849873  leakb05
  1 21 23  leakb05  9.99850022E-04  leakb05
  1 21 24  leakb05       0.00184972  leakb05
  1 21 24  leakb93       0.01998672  leakb93
  1 21 24  leakb101       0.01998672  leakb101
  1 21 25  leakb93       0.00497114  leakb93
  1 21 25  leakb101       0.00497114  leakb101
  1 21 34  leakb93       0.00732052  leakb93
  1 21 34  leakb101       0.00732052  leakb101
  1 21 35  leakb93       0.00330275  leakb93
  1 21 35  leakb101       0.00330275  leakb101
  1 21 36  leakb93       0.04148862  leakb93
  1 21 36  leakb101       0.04148862  leakb101
  1 22 5  leakb62       0.04349783  leakb62
  1 22 5  leakb88       0.05583034  leakb88
  1 22 6  leakb88       0.04984070  leakb88
  1 22 7  leakb25  3.99880036E-04  leakb25
  1 22 7  leakb88       0.03572821  leakb88
  1 22 8  leakb25       0.01864441  leakb25
  1 22 8  leakb88       0.01505579  leakb88
  1 22 9  leakb25       0.02709187  leakb25
  1 22 10  leakb05       0.00179973  leakb05
  1 22 10  leakb25       0.02574228  leakb25
  1 22 11  leakb05       0.00809879  leakb05
  1 22 11  leakb25       0.01449565  leakb25
  1 22 12  leakb05       0.01114833  leakb05
  1 22 12  leakb25       0.00229931  leakb25
  1 22 13  leakb05       0.00379943  leakb05
  1 22 14  leakb05  3.99940009E-04  leakb05
  1 22 14  leakb81  7.99320578E-04  leakb81
  1 22 15  leakb05  9.99850022E-05  leakb05
  1 22 15  leakb81  6.99405505E-04  leakb81
  1 22 16  leakb05       0.00000000  leakb05
  1 22 17  leakb05       0.00339949  leakb05
  1 22 17  leakb81       0.00959185  leakb81
  1 22 18  leakb05       0.00599910  leakb05
  1 22 19  leakb05       0.01074839  leakb05
  1 22 20  leakb05       0.00999850  leakb05
  1 22 21  leakb05       0.00784882  leakb05
  1 22 22  leakb05       0.00884867  leakb05
  1 22 23  leakb05       0.00234965  leakb05
  1 22 24  leakb05       0.00659901  leakb05
  1 22 24  leakb93       0.01222357  leakb93
  1 22 24  leakb101       0.01222357  leakb101
  1 22 25  leakb05       0.00294956  leakb05
  1 22 25  leakb93       0.01086161  leakb93
  1 22 25  leakb101       0.01086161  leakb101
  1 22 26  leakb93       0.00657144  leakb93
  1 22 26  leakb101       0.00657144  leakb101
  1 22 33  leakb93       0.00432421  leakb93
  1 22 33  leakb101       0.00432421  leakb101
  1 22 34  leakb93       0.00364324  leakb93
  1 22 34  leakb101       0.00364324  leakb101
  1 22 35  leakb93  3.74538211E-04  leakb93
  1 22 35  leakb101  3.74538211E-04  leakb101
  1 23 5  leakb62       0.14789261  leakb62
  1 23 5  leakb88       0.04103350  leakb88
  1 23 5  leakb90  1.11992882E-04  leakb90
  1 23 6  leakb88       0.05316383  leakb88
  1 23 6  leakb90  3.35978647E-04  leakb90
  1 23 7  leakb88       0.09533792  leakb88
  1 23 7  leakb90       0.00218386  leakb90
  1 23 8  leakb25       0.00224933  leakb25
  1 23 8  leakb88       0.05167181  leakb88
  1 23 9  leakb25       0.02199340  leakb25
  1 23 9  leakb88       0.08833716  leakb88
  1 23 10  leakb25       0.02724183  leakb25
  1 23 11  leakb25       0.02769169  leakb25
  1 23 12  leakb05       0.00724891  leakb05
  1 23 12  leakb25       0.01759472  leakb25
  1 23 13  leakb05       0.01149828  leakb05
  1 23 14  leakb05       0.00969855  leakb05
  1 23 14  leakb81       0.00124894  leakb81
  1 23 15  leakb05       0.00539919  leakb05
  1 23 15  leakb81       0.00164860  leakb81
  1 23 16  leakb05       0.00829876  leakb05
  1 23 16  leakb81       0.00000000  leakb81
  1 23 17  leakb05       0.00894866  leakb05
  1 23 17  leakb81  7.99320578E-04  leakb81
  1 23 18  leakb05       0.00889867  leakb05
  1 23 19  leakb05       0.00749888  leakb05
  1 23 20  leakb05       0.00704894  leakb05
  1 23 21  leakb05       0.00989852  leakb05
  1 23 22  leakb05       0.00884867  leakb05
  1 23 23  leakb05       0.01029846  leakb05
  1 23 24  leakb05       0.00489927  leakb05