BEGIN DIMENSIONS
  NCELLS 24960
END DIMENSIONS

BEGIN GRIDDATA
  IZONE
    OPEN/CLOSE utils-zonebudget_zones-active.dat
END GRIDDATA