BEGIN options
  auxiliary  multiplier
  AUXMULTNAME  multiplier
  BOUNDNAMES
  SAVE_FLOWS
  OBS6  FILEIN  mf6-tv_scenario-lake_lowell.ghb.obs
END options
 
BEGIN dimensions
  MAXBOUND  33
END dimensions

BEGIN period 1
  1 36 20    2522.00000000   8.9373150E+03       0.15467678  lowell
  1 36 21    2522.00000000   8.9373150E+03       0.25211507  lowell
  1 36 22    2522.00000000   8.9373150E+03       0.01950906  lowell
  1 37 19    2522.00000000   8.9373150E+03       0.23169532  lowell
  1 37 20    2522.00000000   8.9373150E+03       0.96608592  lowell
  1 37 21    2522.00000000   8.9373150E+03       1.00000000  lowell
  1 37 22    2522.00000000   8.9373150E+03       0.51700245  lowell
  1 38 19    2522.00000000   8.9373150E+03       0.03266012  lowell
  1 38 20    2522.00000000   8.9373150E+03       0.41689197  lowell
  1 38 21    2522.00000000   8.9373150E+03       0.84084139  lowell
  1 38 22    2522.00000000   8.9373150E+03       0.35394844  lowell
  1 38 23    2522.00000000   8.9373150E+03       0.11646208  lowell
  1 38 24    2522.00000000   8.9373150E+03       0.04780246  lowell
  1 39 21    2522.00000000   8.9373150E+03       0.06056735  lowell
  1 39 22    2522.00000000   8.9373150E+03       0.94431918  lowell
  1 39 23    2522.00000000   8.9373150E+03       1.00000000  lowell
  1 39 24    2522.00000000   8.9373150E+03       0.63112861  lowell
  1 39 25    2522.00000000   8.9373150E+03       0.01836408  lowell
  1 40 22    2522.00000000   8.9373150E+03       0.05452256  lowell
  1 40 23    2522.00000000   8.9373150E+03       0.45210464  lowell
  1 40 24    2522.00000000   8.9373150E+03       0.83021682  lowell
  1 40 25    2522.00000000   8.9373150E+03       0.89009624  lowell
  1 40 26    2522.00000000   8.9373150E+03       0.42845275  lowell
  1 41 24    2522.00000000   8.9373150E+03       0.00562861  lowell
  1 41 25    2522.00000000   8.9373150E+03       0.36287532  lowell
  1 41 26    2522.00000000   8.9373150E+03       0.28081221  lowell
  1 41 27    2522.00000000   8.9373150E+03  1.84687305E-04  lowell
  1 41 27    2522.00000000   8.9373150E+03       0.00805172  lowell
END period 1
 
BEGIN period 2
  1 36 20    2522.00000000   8.9373150E+03       0.15467678  lowell
  1 36 21    2522.00000000   8.9373150E+03       0.25211507  lowell
  1 36 22    2522.00000000   8.9373150E+03       0.01950906  lowell
  1 37 19    2522.00000000   8.9373150E+03       0.23169532  lowell
  1 37 20    2522.00000000   8.9373150E+03       0.96608592  lowell
  1 37 21    2522.00000000   8.9373150E+03       1.00000000  lowell
  1 37 22    2522.00000000   8.9373150E+03       0.51700245  lowell
  1 38 19    2522.00000000   8.9373150E+03       0.03266012  lowell
  1 38 20    2522.00000000   8.9373150E+03       0.41689197  lowell
  1 38 21    2522.00000000   8.9373150E+03       0.84084139  lowell
  1 38 22    2522.00000000   8.9373150E+03       0.35394844  lowell
  1 38 23    2522.00000000   8.9373150E+03       0.11646208  lowell
  1 38 24    2522.00000000   8.9373150E+03       0.04780246  lowell
  1 39 21    2522.00000000   8.9373150E+03       0.06056735  lowell
  1 39 22    2522.00000000   8.9373150E+03       0.94431918  lowell
  1 39 23    2522.00000000   8.9373150E+03       1.00000000  lowell
  1 39 24    2522.00000000   8.9373150E+03       0.63112861  lowell
  1 39 25    2522.00000000   8.9373150E+03       0.01836408  lowell
  1 40 22    2522.00000000   8.9373150E+03       0.05452256  lowell
  1 40 23    2522.00000000   8.9373150E+03       0.45210464  lowell
  1 40 24    2522.00000000   8.9373150E+03       0.83021682  lowell
  1 40 25    2522.00000000   8.9373150E+03       0.89009624  lowell
  1 40 26    2522.00000000   8.9373150E+03       0.42845275  lowell
  1 41 24    2522.00000000   8.9373150E+03       0.00562861  lowell
  1 41 25    2522.00000000   8.9373150E+03       0.36287532  lowell
  1 41 26    2522.00000000   8.9373150E+03       0.28081221  lowell
  1 41 27    2522.00000000   8.9373150E+03       0.00805172  lowell
  1 41 27    2522.00000000   8.9373150E+03  1.84687305E-04  lowell
END period 2
 
BEGIN period 3
  1 36 20    2522.00000000   8.9373150E+03       0.15467678  lowell
  1 36 21    2522.00000000   8.9373150E+03       0.25211507  lowell
  1 36 22    2522.00000000   8.9373150E+03       0.01950906  lowell
  1 37 19    2522.00000000   8.9373150E+03       0.23169532  lowell
  1 37 20    2522.00000000   8.9373150E+03       0.96608592  lowell
  1 37 21    2522.00000000   8.9373150E+03       1.00000000  lowell
  1 37 22    2522.00000000   8.9373150E+03       0.51700245  lowell
  1 38 19    2522.00000000   8.9373150E+03       0.03266012  lowell
  1 38 20    2522.00000000   8.9373150E+03       0.41689197  lowell
  1 38 21    2522.00000000   8.9373150E+03       0.84084139  lowell
  1 38 22    2522.00000000   8.9373150E+03       0.35394844  lowell
  1 38 23    2522.00000000   8.9373150E+03       0.11646208  lowell
  1 38 24    2522.00000000   8.9373150E+03       0.04780246  lowell
  1 39 21    2522.00000000   8.9373150E+03       0.06056735  lowell
  1 39 22    2522.00000000   8.9373150E+03       0.94431918  lowell
  1 39 23    2522.00000000   8.9373150E+03       1.00000000  lowell
  1 39 24    2522.00000000   8.9373150E+03       0.63112861  lowell
  1 39 25    2522.00000000   8.9373150E+03       0.01836408  lowell
  1 40 22    2522.00000000   8.9373150E+03       0.05452256  lowell
  1 40 23    2522.00000000   8.9373150E+03       0.45210464  lowell
  1 40 24    2522.00000000   8.9373150E+03       0.83021682  lowell
  1 40 25    2522.00000000   8.9373150E+03       0.89009624  lowell
  1 40 26    2522.00000000   8.9373150E+03       0.42845275  lowell
  1 41 24    2522.00000000   8.9373150E+03       0.00562861  lowell
  1 41 25    2522.00000000   8.9373150E+03       0.36287532  lowell
  1 41 26    2522.00000000   8.9373150E+03       0.28081221  lowell
  1 41 27    2522.00000000   8.9373150E+03  1.84687305E-04  lowell
  1 41 27    2522.00000000   8.9373150E+03       0.00805172  lowell
END period 3
 
BEGIN period 4
  1 36 20    2523.00000000   8.9373150E+03       0.16238108  lowell
  1 36 21    2523.00000000   8.9373150E+03       0.26457097  lowell
  1 36 22    2523.00000000   8.9373150E+03       0.03127759  lowell
  1 37 19    2523.00000000   8.9373150E+03       0.23788880  lowell
  1 37 20    2523.00000000   8.9373150E+03       0.96635959  lowell
  1 37 21    2523.00000000   8.9373150E+03       1.00000000  lowell
  1 37 22    2523.00000000   8.9373150E+03       0.53699218  lowell
  1 38 19    2523.00000000   8.9373150E+03       0.04651055  lowell
  1 38 20    2523.00000000   8.9373150E+03       0.42835063  lowell
  1 38 21    2523.00000000   8.9373150E+03       0.86464398  lowell
  1 38 22    2523.00000000   8.9373150E+03       0.36152655  lowell
  1 38 23    2523.00000000   8.9373150E+03       0.12140363  lowell
  1 38 24    2523.00000000   8.9373150E+03       0.04819123  lowell
  1 39 21    2523.00000000   8.9373150E+03       0.08573644  lowell
  1 39 22    2523.00000000   8.9373150E+03       0.95843776  lowell
  1 39 23    2523.00000000   8.9373150E+03       1.00000000  lowell
  1 39 24    2523.00000000   8.9373150E+03       0.63505690  lowell
  1 39 25    2523.00000000   8.9373150E+03       0.01927989  lowell
  1 40 22    2523.00000000   8.9373150E+03       0.06855742  lowell
  1 40 23    2523.00000000   8.9373150E+03       0.46405068  lowell
  1 40 24    2523.00000000   8.9373150E+03       0.84202622  lowell
  1 40 25    2523.00000000   8.9373150E+03       0.89240978  lowell
  1 40 26    2523.00000000   8.9373150E+03       0.44231723  lowell
  1 41 24    2523.00000000   8.9373150E+03       0.00888536  lowell
  1 41 25    2523.00000000   8.9373150E+03       0.39145848  lowell
  1 41 26    2523.00000000   8.9373150E+03       0.34005982  lowell
  1 41 27    2523.00000000   8.9373150E+03       0.00867936  lowell
  1 41 27    2523.00000000   8.9373150E+03  2.58232294E-04  lowell
END period 4
 
BEGIN period 5
  1 36 20    2524.00000000   8.9373150E+03       0.16934904  lowell
  1 36 21    2524.00000000   8.9373150E+03       0.27945714  lowell
  1 36 22    2524.00000000   8.9373150E+03       0.04453989  lowell
  1 37 19    2524.00000000   8.9373150E+03       0.24203071  lowell
  1 37 20    2524.00000000   8.9373150E+03       0.96663686  lowell
  1 37 21    2524.00000000   8.9373150E+03       1.00000000  lowell
  1 37 22    2524.00000000   8.9373150E+03       0.55546236  lowell
  1 38 19    2524.00000000   8.9373150E+03       0.05883484  lowell
  1 38 20    2524.00000000   8.9373150E+03       0.43958134  lowell
  1 38 21    2524.00000000   8.9373150E+03       0.88694135  lowell
  1 38 22    2524.00000000   8.9373150E+03       0.37183248  lowell
  1 38 23    2524.00000000   8.9373150E+03       0.12720656  lowell
  1 38 24    2524.00000000   8.9373150E+03       0.04858671  lowell
  1 39 21    2524.00000000   8.9373150E+03       0.11469950  lowell
  1 39 22    2524.00000000   8.9373150E+03       0.97089495  lowell
  1 39 23    2524.00000000   8.9373150E+03       1.00000000  lowell
  1 39 24    2524.00000000   8.9373150E+03       0.64018083  lowell
  1 39 25    2524.00000000   8.9373150E+03       0.02074246  lowell
  1 40 22    2524.00000000   8.9373150E+03       0.08647902  lowell
  1 40 23    2524.00000000   8.9373150E+03       0.47694720  lowell
  1 40 24    2524.00000000   8.9373150E+03       0.85790837  lowell
  1 40 25    2524.00000000   8.9373150E+03       0.89538779  lowell
  1 40 26    2524.00000000   8.9373150E+03       0.45529877  lowell
  1 41 24    2524.00000000   8.9373150E+03       0.01192738  lowell
  1 41 25    2524.00000000   8.9373150E+03       0.41707582  lowell
  1 41 26    2524.00000000   8.9373150E+03       0.39847142  lowell
  1 41 26    2524.00000000   8.9373150E+03       0.00452873  lowell
  1 41 27    2524.00000000   8.9373150E+03  3.41923769E-04  lowell
  1 41 27    2524.00000000   8.9373150E+03       0.00924831  lowell
  1 41 27    2524.00000000   8.9373150E+03       0.00445916  lowell
  1 42 27    2524.00000000   8.9373150E+03  9.31448869E-04  lowell
END period 5
 
BEGIN period 6
  1 36 20    2525.00000000   8.9373150E+03       0.17517460  lowell
  1 36 21    2525.00000000   8.9373150E+03       0.29128762  lowell
  1 36 22    2525.00000000   8.9373150E+03       0.05064507  lowell
  1 37 19    2525.00000000   8.9373150E+03       0.24503002  lowell
  1 37 20    2525.00000000   8.9373150E+03       0.96691772  lowell
  1 37 21    2525.00000000   8.9373150E+03       1.00000000  lowell
  1 37 22    2525.00000000   8.9373150E+03       0.57661384  lowell
  1 38 19    2525.00000000   8.9373150E+03       0.06910100  lowell
  1 38 20    2525.00000000   8.9373150E+03       0.44934789  lowell
  1 38 21    2525.00000000   8.9373150E+03       0.90863025  lowell
  1 38 22    2525.00000000   8.9373150E+03       0.38349791  lowell
  1 38 23    2525.00000000   8.9373150E+03       0.13461455  lowell
  1 38 24    2525.00000000   8.9373150E+03       0.04896414  lowell
  1 39 21    2525.00000000   8.9373150E+03       0.14677639  lowell
  1 39 22    2525.00000000   8.9373150E+03       0.98388628  lowell
  1 39 23    2525.00000000   8.9373150E+03       1.00000000  lowell
  1 39 24    2525.00000000   8.9373150E+03       0.64559946  lowell
  1 39 25    2525.00000000   8.9373150E+03       0.02227371  lowell
  1 40 22    2525.00000000   8.9373150E+03       0.11008753  lowell
  1 40 23    2525.00000000   8.9373150E+03       0.49011173  lowell
  1 40 24    2525.00000000   8.9373150E+03       0.87044710  lowell
  1 40 25    2525.00000000   8.9373150E+03       0.89968862  lowell
  1 40 26    2525.00000000   8.9373150E+03       0.46583271  lowell
  1 41 24    2525.00000000   8.9373150E+03       0.01529316  lowell
  1 41 25    2525.00000000   8.9373150E+03       0.45087704  lowell
  1 41 26    2525.00000000   8.9373150E+03       0.50929059  lowell
  1 41 27    2525.00000000   8.9373150E+03       0.01028775  lowell
  1 41 27    2525.00000000   8.9373150E+03       0.00505452  lowell
  1 42 27    2525.00000000   8.9373150E+03       0.00234915  lowell
END period 6
 
BEGIN period 7
  1 36 20    2522.00000000   8.9373150E+03       0.15467678  lowell
  1 36 21    2522.00000000   8.9373150E+03       0.25211507  lowell
  1 36 22    2522.00000000   8.9373150E+03       0.01950906  lowell
  1 37 19    2522.00000000   8.9373150E+03       0.23169532  lowell
  1 37 20    2522.00000000   8.9373150E+03       0.96608592  lowell
  1 37 21    2522.00000000   8.9373150E+03       1.00000000  lowell
  1 37 22    2522.00000000   8.9373150E+03       0.51700245  lowell
  1 38 19    2522.00000000   8.9373150E+03       0.03266012  lowell
  1 38 20    2522.00000000   8.9373150E+03       0.41689197  lowell
  1 38 21    2522.00000000   8.9373150E+03       0.84084139  lowell
  1 38 22    2522.00000000   8.9373150E+03       0.35394844  lowell
  1 38 23    2522.00000000   8.9373150E+03       0.11646208  lowell
  1 38 24    2522.00000000   8.9373150E+03       0.04780246  lowell
  1 39 21    2522.00000000   8.9373150E+03       0.06056735  lowell
  1 39 22    2522.00000000   8.9373150E+03       0.94431918  lowell
  1 39 23    2522.00000000   8.9373150E+03       1.00000000  lowell
  1 39 24    2522.00000000   8.9373150E+03       0.63112861  lowell
  1 39 25    2522.00000000   8.9373150E+03       0.01836408  lowell
  1 40 22    2522.00000000   8.9373150E+03       0.05452256  lowell
  1 40 23    2522.00000000   8.9373150E+03       0.45210464  lowell
  1 40 24    2522.00000000   8.9373150E+03       0.83021682  lowell
  1 40 25    2522.00000000   8.9373150E+03       0.89009624  lowell
  1 40 26    2522.00000000   8.9373150E+03       0.42845275  lowell
  1 41 24    2522.00000000   8.9373150E+03       0.00562861  lowell
  1 41 25    2522.00000000   8.9373150E+03       0.36287532  lowell
  1 41 26    2522.00000000   8.9373150E+03       0.28081221  lowell
  1 41 27    2522.00000000   8.9373150E+03       0.00805172  lowell
  1 41 27    2522.00000000   8.9373150E+03  1.84687305E-04  lowell
END period 7
 
BEGIN period 8
  1 36 20    2518.00000000   8.9373150E+03       0.12086344  lowell
  1 36 21    2518.00000000   8.9373150E+03       0.19670128  lowell
  1 36 22    2518.00000000   8.9373150E+03       0.00256949  lowell
  1 37 19    2518.00000000   8.9373150E+03       0.18182010  lowell
  1 37 20    2518.00000000   8.9373150E+03       0.96451413  lowell
  1 37 21    2518.00000000   8.9373150E+03       1.00000000  lowell
  1 37 22    2518.00000000   8.9373150E+03       0.41926499  lowell
  1 38 19    2518.00000000   8.9373150E+03       0.00202372  lowell
  1 38 20    2518.00000000   8.9373150E+03       0.36841438  lowell
  1 38 21    2518.00000000   8.9373150E+03       0.73150735  lowell
  1 38 22    2518.00000000   8.9373150E+03       0.32154745  lowell
  1 38 23    2518.00000000   8.9373150E+03       0.09527825  lowell
  1 38 24    2518.00000000   8.9373150E+03       0.04581304  lowell
  1 39 21    2518.00000000   8.9373150E+03       0.00720590  lowell
  1 39 22    2518.00000000   8.9373150E+03       0.83473548  lowell
  1 39 23    2518.00000000   8.9373150E+03       0.99905575  lowell
  1 39 24    2518.00000000   8.9373150E+03       0.61575131  lowell
  1 39 25    2518.00000000   8.9373150E+03       0.01521116  lowell
  1 40 22    2518.00000000   8.9373150E+03       0.01576010  lowell
  1 40 23    2518.00000000   8.9373150E+03       0.37689948  lowell
  1 40 24    2518.00000000   8.9373150E+03       0.76166186  lowell
  1 40 25    2518.00000000   8.9373150E+03       0.88247875  lowell
  1 40 26    2518.00000000   8.9373150E+03       0.36661448  lowell
  1 41 24    2518.00000000   8.9373150E+03  1.40327157E-04  lowell
  1 41 25    2518.00000000   8.9373150E+03       0.21669728  lowell
  1 41 26    2518.00000000   8.9373150E+03       0.07873574  lowell
END period 8
 
BEGIN period 9
  1 36 20    2518.00000000   8.9373150E+03       0.12086344  lowell
  1 36 21    2518.00000000   8.9373150E+03       0.19670128  lowell
  1 36 22    2518.00000000   8.9373150E+03       0.00256949  lowell
  1 37 19    2518.00000000   8.9373150E+03       0.18182010  lowell
  1 37 20    2518.00000000   8.9373150E+03       0.96451413  lowell
  1 37 21    2518.00000000   8.9373150E+03       1.00000000  lowell
  1 37 22    2518.00000000   8.9373150E+03       0.41926499  lowell
  1 38 19    2518.00000000   8.9373150E+03       0.00202372  lowell
  1 38 20    2518.00000000   8.9373150E+03       0.36841438  lowell
  1 38 21    2518.00000000   8.9373150E+03       0.73150735  lowell
  1 38 22    2518.00000000   8.9373150E+03       0.32154745  lowell
  1 38 23    2518.00000000   8.9373150E+03       0.09527825  lowell
  1 38 24    2518.00000000   8.9373150E+03       0.04581304  lowell
  1 39 21    2518.00000000   8.9373150E+03       0.00720590  lowell
  1 39 22    2518.00000000   8.9373150E+03       0.83473548  lowell
  1 39 23    2518.00000000   8.9373150E+03       0.99905575  lowell
  1 39 24    2518.00000000   8.9373150E+03       0.61575131  lowell
  1 39 25    2518.00000000   8.9373150E+03       0.01521116  lowell
  1 40 22    2518.00000000   8.9373150E+03       0.01576010  lowell
  1 40 23    2518.00000000   8.9373150E+03       0.37689948  lowell
  1 40 24    2518.00000000   8.9373150E+03       0.76166186  lowell
  1 40 25    2518.00000000   8.9373150E+03       0.88247875  lowell
  1 40 26    2518.00000000   8.9373150E+03       0.36661448  lowell
  1 41 24    2518.00000000   8.9373150E+03  1.40327157E-04  lowell
  1 41 25    2518.00000000   8.9373150E+03       0.21669728  lowell
  1 41 26    2518.00000000   8.9373150E+03       0.07873574  lowell
END period 9
 
BEGIN period 10
  1 36 20    2521.00000000   8.9373150E+03       0.14719022  lowell
  1 36 21    2521.00000000   8.9373150E+03       0.23558072  lowell
  1 36 22    2521.00000000   8.9373150E+03       0.01131893  lowell
  1 37 19    2521.00000000   8.9373150E+03       0.22232210  lowell
  1 37 20    2521.00000000   8.9373150E+03       0.96581640  lowell
  1 37 21    2521.00000000   8.9373150E+03       1.00000000  lowell
  1 37 22    2521.00000000   8.9373150E+03       0.49815353  lowell
  1 38 19    2521.00000000   8.9373150E+03       0.02668479  lowell
  1 38 20    2521.00000000   8.9373150E+03       0.40531348  lowell
  1 38 21    2521.00000000   8.9373150E+03       0.81030788  lowell
  1 38 22    2521.00000000   8.9373150E+03       0.34628033  lowell
  1 38 23    2521.00000000   8.9373150E+03       0.11166857  lowell
  1 38 24    2521.00000000   8.9373150E+03       0.04738626  lowell
  1 39 21    2521.00000000   8.9373150E+03       0.04524061  lowell
  1 39 22    2521.00000000   8.9373150E+03       0.92244479  lowell
  1 39 23    2521.00000000   8.9373150E+03       1.00000000  lowell
  1 39 24    2521.00000000   8.9373150E+03       0.62743364  lowell
  1 39 25    2521.00000000   8.9373150E+03       0.01752542  lowell
  1 40 22    2521.00000000   8.9373150E+03       0.04268833  lowell
  1 40 23    2521.00000000   8.9373150E+03       0.43931797  lowell
  1 40 24    2521.00000000   8.9373150E+03       0.81518472  lowell
  1 40 25    2521.00000000   8.9373150E+03       0.88786724  lowell
  1 40 26    2521.00000000   8.9373150E+03       0.41661411  lowell
  1 41 24    2521.00000000   8.9373150E+03       0.00372493  lowell
  1 41 25    2521.00000000   8.9373150E+03       0.33171562  lowell
  1 41 26    2521.00000000   8.9373150E+03       0.24202554  lowell
  1 41 27    2521.00000000   8.9373150E+03  1.21289226E-04  lowell
  1 41 27    2521.00000000   8.9373150E+03       0.00626746  lowell
END period 10
 
BEGIN period 11
  1 36 20    2523.00000000   8.9373150E+03       0.16238108  lowell
  1 36 21    2523.00000000   8.9373150E+03       0.26457097  lowell
  1 36 22    2523.00000000   8.9373150E+03       0.03127759  lowell
  1 37 19    2523.00000000   8.9373150E+03       0.23788880  lowell
  1 37 20    2523.00000000   8.9373150E+03       0.96635959  lowell
  1 37 21    2523.00000000   8.9373150E+03       1.00000000  lowell
  1 37 22    2523.00000000   8.9373150E+03       0.53699218  lowell
  1 38 19    2523.00000000   8.9373150E+03       0.04651055  lowell
  1 38 20    2523.00000000   8.9373150E+03       0.42835063  lowell
  1 38 21    2523.00000000   8.9373150E+03       0.86464398  lowell
  1 38 22    2523.00000000   8.9373150E+03       0.36152655  lowell
  1 38 23    2523.00000000   8.9373150E+03       0.12140363  lowell
  1 38 24    2523.00000000   8.9373150E+03       0.04819123  lowell
  1 39 21    2523.00000000   8.9373150E+03       0.08573644  lowell
  1 39 22    2523.00000000   8.9373150E+03       0.95843776  lowell
  1 39 23    2523.00000000   8.9373150E+03       1.00000000  lowell
  1 39 24    2523.00000000   8.9373150E+03       0.63505690  lowell
  1 39 25    2523.00000000   8.9373150E+03       0.01927989  lowell
  1 40 22    2523.00000000   8.9373150E+03       0.06855742  lowell
  1 40 23    2523.00000000   8.9373150E+03       0.46405068  lowell
  1 40 24    2523.00000000   8.9373150E+03       0.84202622  lowell
  1 40 25    2523.00000000   8.9373150E+03       0.89240978  lowell
  1 40 26    2523.00000000   8.9373150E+03       0.44231723  lowell
  1 41 24    2523.00000000   8.9373150E+03       0.00888536  lowell
  1 41 25    2523.00000000   8.9373150E+03       0.39145848  lowell
  1 41 26    2523.00000000   8.9373150E+03       0.34005982  lowell
  1 41 27    2523.00000000   8.9373150E+03       0.00867936  lowell
  1 41 27    2523.00000000   8.9373150E+03  2.58232294E-04  lowell
END period 11
 
BEGIN period 12
  1 36 20    2524.00000000   8.9373150E+03       0.16934904  lowell
  1 36 21    2524.00000000   8.9373150E+03       0.27945714  lowell
  1 36 22    2524.00000000   8.9373150E+03       0.04453989  lowell
  1 37 19    2524.00000000   8.9373150E+03       0.24203071  lowell
  1 37 20    2524.00000000   8.9373150E+03       0.96663686  lowell
  1 37 21    2524.00000000   8.9373150E+03       1.00000000  lowell
  1 37 22    2524.00000000   8.9373150E+03       0.55546236  lowell
  1 38 19    2524.00000000   8.9373150E+03       0.05883484  lowell
  1 38 20    2524.00000000   8.9373150E+03       0.43958134  lowell
  1 38 21    2524.00000000   8.9373150E+03       0.88694135  lowell
  1 38 22    2524.00000000   8.9373150E+03       0.37183248  lowell
  1 38 23    2524.00000000   8.9373150E+03       0.12720656  lowell
  1 38 24    2524.00000000   8.9373150E+03       0.04858671  lowell
  1 39 21    2524.00000000   8.9373150E+03       0.11469950  lowell
  1 39 22    2524.00000000   8.9373150E+03       0.97089495  lowell
  1 39 23    2524.00000000   8.9373150E+03       1.00000000  lowell
  1 39 24    2524.00000000   8.9373150E+03       0.64018083  lowell
  1 39 25    2524.00000000   8.9373150E+03       0.02074246  lowell
  1 40 22    2524.00000000   8.9373150E+03       0.08647902  lowell
  1 40 23    2524.00000000   8.9373150E+03       0.47694720  lowell
  1 40 24    2524.00000000   8.9373150E+03       0.85790837  lowell
  1 40 25    2524.00000000   8.9373150E+03       0.89538779  lowell
  1 40 26    2524.00000000   8.9373150E+03       0.45529877  lowell
  1 41 24    2524.00000000   8.9373150E+03       0.01192738  lowell
  1 41 25    2524.00000000   8.9373150E+03       0.41707582  lowell
  1 41 26    2524.00000000   8.9373150E+03       0.39847142  lowell
  1 41 26    2524.00000000   8.9373150E+03       0.00452873  lowell
  1 41 27    2524.00000000   8.9373150E+03       0.00445916  lowell
  1 41 27    2524.00000000   8.9373150E+03       0.00924831  lowell
  1 41 27    2524.00000000   8.9373150E+03  3.41923769E-04  lowell
  1 42 27    2524.00000000   8.9373150E+03  9.31448869E-04  lowell
END period 12
 
BEGIN period 13
  1 36 20    2524.00000000   8.9373150E+03       0.16934904  lowell
  1 36 21    2524.00000000   8.9373150E+03       0.27945714  lowell
  1 36 22    2524.00000000   8.9373150E+03       0.04453989  lowell
  1 37 19    2524.00000000   8.9373150E+03       0.24203071  lowell
  1 37 20    2524.00000000   8.9373150E+03       0.96663686  lowell
  1 37 21    2524.00000000   8.9373150E+03       1.00000000  lowell
  1 37 22    2524.00000000   8.9373150E+03       0.55546236  lowell
  1 38 19    2524.00000000   8.9373150E+03       0.05883484  lowell
  1 38 20    2524.00000000   8.9373150E+03       0.43958134  lowell
  1 38 21    2524.00000000   8.9373150E+03       0.88694135  lowell
  1 38 22    2524.00000000   8.9373150E+03       0.37183248  lowell
  1 38 23    2524.00000000   8.9373150E+03       0.12720656  lowell
  1 38 24    2524.00000000   8.9373150E+03       0.04858671  lowell
  1 39 21    2524.00000000   8.9373150E+03       0.11469950  lowell
  1 39 22    2524.00000000   8.9373150E+03       0.97089495  lowell
  1 39 23    2524.00000000   8.9373150E+03       1.00000000  lowell
  1 39 24    2524.00000000   8.9373150E+03       0.64018083  lowell
  1 39 25    2524.00000000   8.9373150E+03       0.02074246  lowell
  1 40 22    2524.00000000   8.9373150E+03       0.08647902  lowell
  1 40 23    2524.00000000   8.9373150E+03       0.47694720  lowell
  1 40 24    2524.00000000   8.9373150E+03       0.85790837  lowell
  1 40 25    2524.00000000   8.9373150E+03       0.89538779  lowell
  1 40 26    2524.00000000   8.9373150E+03       0.45529877  lowell
  1 41 24    2524.00000000   8.9373150E+03       0.01192738  lowell
  1 41 25    2524.00000000   8.9373150E+03       0.41707582  lowell
  1 41 26    2524.00000000   8.9373150E+03       0.39847142  lowell
  1 41 26    2524.00000000   8.9373150E+03       0.00452873  lowell
  1 41 27    2524.00000000   8.9373150E+03  3.41923769E-04  lowell
  1 41 27    2524.00000000   8.9373150E+03       0.00445916  lowell
  1 41 27    2524.00000000   8.9373150E+03       0.00924831  lowell
  1 42 27    2524.00000000   8.9373150E+03  9.31448869E-04  lowell
END period 13
 
BEGIN period 14
  1 36 20    2523.00000000   8.9373150E+03       0.16238108  lowell
  1 36 21    2523.00000000   8.9373150E+03       0.26457097  lowell
  1 36 22    2523.00000000   8.9373150E+03       0.03127759  lowell
  1 37 19    2523.00000000   8.9373150E+03       0.23788880  lowell
  1 37 20    2523.00000000   8.9373150E+03       0.96635959  lowell
  1 37 21    2523.00000000   8.9373150E+03       1.00000000  lowell
  1 37 22    2523.00000000   8.9373150E+03       0.53699218  lowell
  1 38 19    2523.00000000   8.9373150E+03       0.04651055  lowell
  1 38 20    2523.00000000   8.9373150E+03       0.42835063  lowell
  1 38 21    2523.00000000   8.9373150E+03       0.86464398  lowell
  1 38 22    2523.00000000   8.9373150E+03       0.36152655  lowell
  1 38 23    2523.00000000   8.9373150E+03       0.12140363  lowell
  1 38 24    2523.00000000   8.9373150E+03       0.04819123  lowell
  1 39 21    2523.00000000   8.9373150E+03       0.08573644  lowell
  1 39 22    2523.00000000   8.9373150E+03       0.95843776  lowell
  1 39 23    2523.00000000   8.9373150E+03       1.00000000  lowell
  1 39 24    2523.00000000   8.9373150E+03       0.63505690  lowell
  1 39 25    2523.00000000   8.9373150E+03       0.01927989  lowell
  1 40 22    2523.00000000   8.9373150E+03       0.06855742  lowell
  1 40 23    2523.00000000   8.9373150E+03       0.46405068  lowell
  1 40 24    2523.00000000   8.9373150E+03       0.84202622  lowell
  1 40 25    2523.00000000   8.9373150E+03       0.89240978  lowell
  1 40 26    2523.00000000   8.9373150E+03       0.44231723  lowell
  1 41 24    2523.00000000   8.9373150E+03       0.00888536  lowell
  1 41 25    2523.00000000   8.9373150E+03       0.39145848  lowell
  1 41 26    2523.00000000   8.9373150E+03       0.34005982  lowell
  1 41 27    2523.00000000   8.9373150E+03       0.00867936  lowell
  1 41 27    2523.00000000   8.9373150E+03  2.58232294E-04  lowell
END period 14
 
BEGIN period 15
  1 36 20    2523.00000000   8.9373150E+03       0.16238108  lowell
  1 36 21    2523.00000000   8.9373150E+03       0.26457097  lowell
  1 36 22    2523.00000000   8.9373150E+03       0.03127759  lowell
  1 37 19    2523.00000000   8.9373150E+03       0.23788880  lowell
  1 37 20    2523.00000000   8.9373150E+03       0.96635959  lowell
  1 37 21    2523.00000000   8.9373150E+03       1.00000000  lowell
  1 37 22    2523.00000000   8.9373150E+03       0.53699218  lowell
  1 38 19    2523.00000000   8.9373150E+03       0.04651055  lowell
  1 38 20    2523.00000000   8.9373150E+03       0.42835063  lowell
  1 38 21    2523.00000000   8.9373150E+03       0.86464398  lowell
  1 38 22    2523.00000000   8.9373150E+03       0.36152655  lowell
  1 38 23    2523.00000000   8.9373150E+03       0.12140363  lowell
  1 38 24    2523.00000000   8.9373150E+03       0.04819123  lowell
  1 39 21    2523.00000000   8.9373150E+03       0.08573644  lowell
  1 39 22    2523.00000000   8.9373150E+03       0.95843776  lowell
  1 39 23    2523.00000000   8.9373150E+03       1.00000000  lowell
  1 39 24    2523.00000000   8.9373150E+03       0.63505690  lowell
  1 39 25    2523.00000000   8.9373150E+03       0.01927989  lowell
  1 40 22    2523.00000000   8.9373150E+03       0.06855742  lowell
  1 40 23    2523.00000000   8.9373150E+03       0.46405068  lowell
  1 40 24    2523.00000000   8.9373150E+03       0.84202622  lowell
  1 40 25    2523.00000000   8.9373150E+03       0.89240978  lowell
  1 40 26    2523.00000000   8.9373150E+03       0.44231723  lowell
  1 41 24    2523.00000000   8.9373150E+03       0.00888536  lowell
  1 41 25    2523.00000000   8.9373150E+03       0.39145848  lowell
  1 41 26    2523.00000000   8.9373150E+03       0.34005982  lowell
  1 41 27    2523.00000000   8.9373150E+03       0.00867936  lowell
  1 41 27    2523.00000000   8.9373150E+03  2.58232294E-04  lowell
END period 15
 
BEGIN period 16
  1 36 20    2524.00000000   8.9373150E+03       0.16934904  lowell
  1 36 21    2524.00000000   8.9373150E+03       0.27945714  lowell
  1 36 22    2524.00000000   8.9373150E+03       0.04453989  lowell
  1 37 19    2524.00000000   8.9373150E+03       0.24203071  lowell
  1 37 20    2524.00000000   8.9373150E+03       0.96663686  lowell