# File generated by Flopy version 3.3.2 on 05/05/2022 at 16:48:41.
BEGIN griddata
  strt
  INTERNAL
    1.00E+30
    1.00E+30
    1.00E+30
    1.00E+30
    1.00E+30
    1.00E+30
    1.00E+30
    1.00E+30
    2107.55544
    2105.05155
    1.00E+30
    1.00E+30
    1.00E+30
    1.00E+30
    1.00E+30
    1.00E+30
    1.00E+30
    1.00E+30
    1.00E+30
    1.00E+30
    1.00E+30
    1.00E+30
    1.00E+30
    1.00E+30
    1.00E+30
    1.00E+30
    1.00E+30
    1.00E+30
    1.00E+30
    1.00E+30
    1.00E+30
    1.00E+30
    1.00E+30
    1.00E+30
    1.00E+30
    1.00E+30
    1.00E+30
    1.00E+30
    1.00E+30
    1.00E+30
    1.00E+30
    1.00E+30
    1.00E+30
    1.00E+30
    1.00E+30
    1.00E+30
    1.00E+30
    1.00E+30
    1.00E+30
    1.00E+30
    1.00E+30
    1.00E+30
    1.00E+30
    1.00E+30
    1.00E+30
    1.00E+30
    1.00E+30
    1.00E+30
    1.00E+30
    1.00E+30
    1.00E+30
    1.00E+30
    1.00E+30
    1.00E+30
    1.00E+30
    1.00E+30
    1.00E+30
    1.00E+30
    1.00E+30
    1.00E+30
    1.00E+30
    2111.45634
    2110.32178
    2109.03632
    1.00E+30
    1.00E+30
    1.00E+30
    1.00E+30
    1.00E+30
    1.00E+30
    1.00E+30
    1.00E+30
    1.00E+30
    1.00E+30
    1.00E+30
    1.00E+30
    1.00E+30
    1.00E+30
    1.00E+30
    1.00E+30
    1.00E+30
    1.00E+30
    1.00E+30
    1.00E+30
    1.00E+30
    1.00E+30
    1.00E+30
    1.00E+30
    1.00E+30
    1.00E+30
    1.00E+30
    1.00E+30
    1.00E+30
    1.00E+30
    1.00E+30
    1.00E+30
    1.00E+30
    1.00E+30
    1.00E+30
    1.00E+30
    1.00E+30
    1.00E+30
    1.00E+30
    1.00E+30
    1.00E+30
    1.00E+30
    1.00E+30
    1.00E+30
    1.00E+30
    1.00E+30
    1.00E+30
    1.00E+30
    1.00E+30
    1.00E+30
    1.00E+30
    1.00E+30
    1.00E+30
    1.00E+30
    1.00E+30
    1.00E+30
    1.00E+30
    1.00E+30
    1.00E+30
    1.00E+30
    1.00E+30
    1.00E+30
    2112.66432
    2113.85534
    2115.02816
    1.00E+30
    1.00E+30
    1.00E+30
    1.00E+30
    1.00E+30
    1.00E+30
    1.00E+30
    1.00E+30
    1.00E+30
    1.00E+30
    1.00E+30
    1.00E+30
    1.00E+30
    1.00E+30
    1.00E+30
    1.00E+30
    1.00E+30
    1.00E+30
    1.00E+30
    1.00E+30
    1.00E+30
    1.00E+30
    1.00E+30
    1.00E+30
    1.00E+30
    1.00E+30
    1.00E+30
    1.00E+30
    1.00E+30
    1.00E+30
    1.00E+30
    1.00E+30
    1.00E+30
    1.00E+30
    1.00E+30
    1.00E+30
    1.00E+30
    1.00E+30
    1.00E+30
    1.00E+30
    1.00E+30
    1.00E+30
    1.00E+30
    1.00E+30
    1.00E+30
    1.00E+30
    1.00E+30
    1.00E+30
    1.00E+30
    1.00E+30
    1.00E+30
    1.00E+30
    1.00E+30
    1.00E+30
    1.00E+30
    1.00E+30
    1.00E+30
    1.00E+30
    1.00E+30
    1.00E+30
    1.00E+30
    1.00E+30
    1.00E+30
    2115.14035
    2123.7878
    2128.27984
    2143.00773
    1.00E+30
    1.00E+30
    1.00E+30
    1.00E+30
    1.00E+30
    1.00E+30
    1.00E+30
    1.00E+30
    1.00E+30
    1.00E+30
    1.00E+30
    1.00E+30
    1.00E+30
    1.00E+30
    1.00E+30
    1.00E+30
    1.00E+30
    1.00E+30
    1.00E+30
    1.00E+30
    1.00E+30
    1.00E+30
    1.00E+30
    1.00E+30
    1.00E+30
    1.00E+30
    1.00E+30
    1.00E+30
    1.00E+30
    1.00E+30
    1.00E+30
    1.00E+30
    1.00E+30
    1.00E+30
    1.00E+30
    1.00E+30
    1.00E+30
    1.00E+30
    1.00E+30
    1.00E+30
    1.00E+30
    1.00E+30
    1.00E+30
    1.00E+30
    1.00E+30
    1.00E+30
    1.00E+30
    1.00E+30
    1.00E+30
    1.00E+30
    1.00E+30
    1.00E+30
    1.00E+30
    1.00E+30
    1.00E+30
    1.00E+30
    1.00E+30
    1.00E+30
    1.00E+30
    1.00E+30
    1.00E+30
    2122.99046
    2123.40079
    2131.14355
    2149.78725
    2164.27725
    2170.84741
    1.00E+30
    1.00E+30
    1.00E+30
    1.00E+30
    1.00E+30
    1.00E+30
    1.00E+30
    1.00E+30
    1.00E+30
    1.00E+30
    1.00E+30
    1.00E+30
    1.00E+30
    1.00E+30
    1.00E+30
    1.00E+30
    1.00E+30
    1.00E+30
    1.00E+30
    1.00E+30
    1.00E+30
    1.00E+30
    1.00E+30
    1.00E+30
    1.00E+30
    1.00E+30
    1.00E+30
    1.00E+30
    1.00E+30
    1.00E+30
    1.00E+30
    1.00E+30
    1.00E+30
    1.00E+30
    1.00E+30
    1.00E+30
    1.00E+30
    1.00E+30
    1.00E+30
    1.00E+30
    1.00E+30
    1.00E+30
    1.00E+30
    1.00E+30
    1.00E+30
    1.00E+30
    1.00E+30
    1.00E+30
    1.00E+30
    1.00E+30
    1.00E+30
    1.00E+30
    1.00E+30
    1.00E+30
    1.00E+30
    1.00E+30
    1.00E+30
    1.00E+30
    1.00E+30
    1.00E+30
    2122.79164
    2139.83506
    2149.17424
    2159.38425
    2170.92431
    2222.50683
    1.00E+30
    1.00E+30
    1.00E+30
    1.00E+30
    1.00E+30
    1.00E+30
    1.00E+30
    1.00E+30
    1.00E+30
    1.00E+30
    1.00E+30
    1.00E+30
    1.00E+30
    1.00E+30
    1.00E+30
    1.00E+30
    1.00E+30
    1.00E+30
    1.00E+30
    1.00E+30
    1.00E+30
    1.00E+30
    1.00E+30
    1.00E+30
    1.00E+30
    1.00E+30
    1.00E+30
    1.00E+30
    1.00E+30
    1.00E+30
    1.00E+30
    1.00E+30
    1.00E+30
    1.00E+30
    1.00E+30
    1.00E+30
    1.00E+30
    1.00E+30
    1.00E+30
    1.00E+30
    1.00E+30
    1.00E+30
    1.00E+30
    1.00E+30
    1.00E+30
    1.00E+30
    1.00E+30
    1.00E+30
    1.00E+30
    1.00E+30
    1.00E+30
    1.00E+30
    1.00E+30
    1.00E+30
    1.00E+30
    1.00E+30
    1.00E+30
    1.00E+30
    1.00E+30
    2122.27988
    2141.27074
    2163.96589
    2175.59365
    2182.24637
    2184.10342
    2189.04224
    2207.83053
    1.00E+30
    1.00E+30
    1.00E+30
    1.00E+30
    1.00E+30
    1.00E+30
    1.00E+30
    1.00E+30
    1.00E+30
    1.00E+30
    1.00E+30
    1.00E+30
    1.00E+30
    1.00E+30
    1.00E+30
    1.00E+30
    1.00E+30
    1.00E+30
    1.00E+30
    1.00E+30
    1.00E+30
    1.00E+30
    1.00E+30
    1.00E+30
    1.00E+30
    1.00E+30
    1.00E+30
    1.00E+30
    1.00E+30
    1.00E+30
    1.00E+30
    1.00E+30
    1.00E+30
    1.00E+30
    1.00E+30
    1.00E+30
    1.00E+30
    1.00E+30
    1.00E+30
    1.00E+30
    1.00E+30
    1.00E+30
    1.00E+30
    1.00E+30
    1.00E+30
    1.00E+30
    1.00E+30
    1.00E+30
    1.00E+30
    1.00E+30
    1.00E+30
    1.00E+30
    1.00E+30
    1.00E+30
    1.00E+30
    1.00E+30
    1.00E+30
    2121.67992
    2150.96224
    2175.74103
    2189.63287
    2196.706
    2199.71729
    2202.56695
    2201.40336
    2255.78169
    1.00E+30
    1.00E+30
    1.00E+30
    1.00E+30
    1.00E+30
    1.00E+30
    1.00E+30
    1.00E+30
    1.00E+30
    1.00E+30
    1.00E+30
    1.00E+30
    1.00E+30
    1.00E+30
    1.00E+30
    1.00E+30
    1.00E+30
    1.00E+30
    1.00E+30
    1.00E+30
    1.00E+30
    1.00E+30
    1.00E+30
    1.00E+30
    1.00E+30
    1.00E+30
    1.00E+30
    1.00E+30
    1.00E+30
    1.00E+30
    1.00E+30
    1.00E+30
    1.00E+30
    1.00E+30
    1.00E+30
    1.00E+30
    1.00E+30
    1.00E+30
    1.00E+30
    1.00E+30
    1.00E+30
    1.00E+30
    1.00E+30
    1.00E+30
    1.00E+30
    1.00E+30
    1.00E+30
    1.00E+30
    1.00E+30
    1.00E+30
    1.00E+30
    1.00E+30
    1.00E+30
    1.00E+30
    1.00E+30
    1.00E+30
    2128.15947
    2154.91797
    2186.23349
    2200.93623
    2209.22372
    2213.62977
    2215.70665
    2216.0753
    2215.67941
    2228.35457
    1.00E+30
    1.00E+30
    1.00E+30
    1.00E+30
    1.00E+30
    1.00E+30
    1.00E+30
    1.00E+30
    1.00E+30
    1.00E+30
    1.00E+30
    1.00E+30
    1.00E+30
    1.00E+30
    1.00E+30
    1.00E+30
    1.00E+30
    1.00E+30
    1.00E+30
    1.00E+30
    1.00E+30
    1.00E+30
    1.00E+30
    1.00E+30
    1.00E+30
    1.00E+30
    1.00E+30
    1.00E+30
    1.00E+30
    1.00E+30
    1.00E+30
    1.00E+30
    1.00E+30
    1.00E+30
    1.00E+30
    1.00E+30
    1.00E+30
    1.00E+30
    1.00E+30
    1.00E+30
    1.00E+30
    1.00E+30
    1.00E+30
    1.00E+30
    1.00E+30
    1.00E+30
    1.00E+30
    1.00E+30
    1.00E+30
    1.00E+30
    1.00E+30
    1.00E+30
    1.00E+30
    1.00E+30
    2130.83393
    2154.75644
    2171.89032
    2196.57488
    2209.76655
    2218.09815
    2222.93163
    2226.72352
    2229.15132
    2227.75204
    2223.44492
    2241.61519
    1.00E+30
    1.00E+30
    1.00E+30
    1.00E+30
    1.00E+30
    1.00E+30
    1.00E+30
    1.00E+30
    1.00E+30
    1.00E+30
    1.00E+30
    1.00E+30
    1.00E+30
    1.00E+30
    1.00E+30
    1.00E+30
    1.00E+30
    1.00E+30
    1.00E+30
    1.00E+30
    1.00E+30
    1.00E+30
    1.00E+30
    1.00E+30
    1.00E+30
    1.00E+30
    1.00E+30
    1.00E+30
    1.00E+30
    1.00E+30
    1.00E+30
    1.00E+30
    1.00E+30
    1.00E+30
    1.00E+30
    1.00E+30
    1.00E+30
    1.00E+30
    1.00E+30
    1.00E+30
    1.00E+30
    1.00E+30
    1.00E+30
    1.00E+30
    1.00E+30
    1.00E+30
    1.00E+30
    1.00E+30
    1.00E+30
    1.00E+30
    1.00E+30
    1.00E+30
    2134.82243
    2134.95559
    2171.00652
    2193.35755
    2206.99356
    2218.3772
    2224.59145
    2229.83072
    2234.47606
    2237.23843
    2239.81875
    2238.81014
    2235.67565
    2241.03979
    2253.69152
    2262.17974
    1.00E+30
    1.00E+30
    1.00E+30
    1.00E+30
    1.00E+30
    1.00E+30
    1.00E+30
    1.00E+30
    1.00E+30
    1.00E+30
    1.00E+30
    1.00E+30
    1.00E+30
    1.00E+30
    1.00E+30
    1.00E+30
    1.00E+30
    1.00E+30
    1.00E+30
    1.00E+30
    1.00E+30
    1.00E+30
    1.00E+30
    1.00E+30
    1.00E+30
    1.00E+30
    1.00E+30
    1.00E+30
    1.00E+30
    1.00E+30
    1.00E+30
    1.00E+30
    1.00E+30
    1.00E+30
    1.00E+30
    1.00E+30
    1.00E+30
    1.00E+30
    1.00E+30
    1.00E+30
    1.00E+30
    1.00E+30
    1.00E+30
    1.00E+30
    1.00E+30
    1.00E+30
    1.00E+30
    1.00E+30
    1.00E+30
    1.00E+30
    2136.17822
    2201.57915
    2211.67167
    2220.65449
    2229.23393
    2233.72888
    2238.46058
    2243.46079
    2247.9501
    2253.14213
    2254.9233
    2253.14554
    2253.2342
    2250.55509
    2266.01917
    2279.47806
    2287.06307
    1.00E+30
    1.00E+30
    1.00E+30
    1.00E+30
    1.00E+30
    1.00E+30
    1.00E+30
    1.00E+30
    1.00E+30
    1.00E+30
    1.00E+30
    1.00E+30
    1.00E+30
    1.00E+30
    1.00E+30
    1.00E+30
    1.00E+30
    1.00E+30
    1.00E+30
    1.00E+30
    1.00E+30
    1.00E+30
    1.00E+30
    1.00E+30
    1.00E+30
    1.00E+30
    1.00E+30
    1.00E+30
    1.00E+30
    1.00E+30
    1.00E+30
    1.00E+30
    1.00E+30
    1.00E+30
    1.00E+30
    1.00E+30
    1.00E+30
    1.00E+30
    1.00E+30
    1.00E+30
    1.00E+30
    1.00E+30
    1.00E+30
    1.00E+30
    1.00E+30
    1.00E+30
    1.00E+30
    1.00E+30
    2137.22351
    2218.81132
    2231.38712
    2236.47347
    2242.15893
    2244.87486
    2250.52504
    2257.05105
    2268.32446
    2277.13521
    2277.2203
    2272.56991
    2268.03216
    2262.44891
    2265.58171
    2277.83282
    2289.78985
    2305.31428
    2322.00581
    2341.18232
    2369.06659
    1.00E+30
    1.00E+30
    1.00E+30
    1.00E+30
    1.00E+30
    2394.94975
    1.00E+30
    1.00E+30
    1.00E+30
    1.00E+30
    1.00E+30
    1.00E+30
    1.00E+30
    1.00E+30
    1.00E+30
    1.00E+30
    1.00E+30
    1.00E+30
    1.00E+30
    1.00E+30
    1.00E+30
    1.00E+30
    1.00E+30
    1.00E+30
    1.00E+30
    1.00E+30
    1.00E+30
    1.00E+30
    1.00E+30
    1.00E+30
    1.00E+30
    1.00E+30
    1.00E+30
    1.00E+30
    1.00E+30
    1.00E+30
    1.00E+30
    1.00E+30
    1.00E+30
    1.00E+30
    1.00E+30
    1.00E+30
    1.00E+30
    2137.34866
    2137.67888
    2233.36878
    2288.08963
    2254.75461
    2259.88936
    2255.20819
    2258.53438
    2264.78217
    2296.87705
    2303.13951
    2297.34201
    2295.96112
    2281.93669
    2277.70091
    2275.97441
    2274.53868
    2285.4719
    2303.08198
    2316.59722
    2332.16257
    2352.73365
    2367.59309
    2370.37026
    2378.11921
    2380.72129
    2385.46158
    2390.90914
    2406.28009
    1.00E+30
    1.00E+30
    1.00E+30
    1.00E+30
    1.00E+30
    1.00E+30
    1.00E+30
    1.00E+30
    1.00E+30
    1.00E+30
    1.00E+30
    1.00E+30
    1.00E+30
    1.00E+30
    1.00E+30
    1.00E+30
    1.00E+30
    1.00E+30
    1.00E+30
    1.00E+30
    1.00E+30
    1.00E+30
    1.00E+30
    1.00E+30
    1.00E+30
    1.00E+30
    1.00E+30
    1.00E+30
    1.00E+30
    1.00E+30
    1.00E+30
    1.00E+30
    1.00E+30
    1.00E+30
    1.00E+30
    1.00E+30
    2145.05068
    2208.93314
    2238.21077
    2269.18349
    2259.15443
    2266.12904
    2263.69742
    2265.4983
    2269.82512
    2280.67662
    2291.78814
    2302.18464
    2302.54101
    2303.74893
    2291.75033
    2285.93892
    2288.4528
    2292.44025
    2297.04583
    2312.18125
    2325.87288
    2340.80971
    2355.1501
    2363.51064
    2369.27194
    2375.18177
    2380.94245
    2397.24257
    2401.32574
    2401.00375
    1.00E+30
    1.00E+30
    1.00E+30
    1.00E+30
    1.00E+30
    1.00E+30
    1.00E+30
    1.00E+30
    1.00E+30
    1.00E+30
    1.00E+30
    1.00E+30
    1.00E+30
    1.00E+30
    1.00E+30
    1.00E+30
    1.00E+30
    1.00E+30
    1.00E+30
    1.00E+30
    1.00E+30
    1.00E+30
    1.00E+30
    1.00E+30
    1.00E+30
    1.00E+30
    1.00E+30
    1.00E+30
    1.00E+30
    1.00E+30
    1.00E+30
    1.00E+30
    1.00E+30
    1.00E+30
    1.00E+30
    2149.8889
    2183.20769
    2246.80373
    2266.48548
    2270.46058
    2276.8536
    2270.87896
    2271.89714
    2275.23533
    2283.2126
    2294.02407
    2304.14479
    2308.8619
    2313.68812
    2316.61067
    2308.35715
    2306.90029
    2310.41068
    2311.28527
    2308.3657
    2313.76075
    2331.10568
    2343.91265
    2353.94619
    2357.36125
    2365.09919
    2389.94789
    2399.07769
    2400.77125
    2401.08672
    1.00E+30
    1.00E+30
    1.00E+30
    1.00E+30
    1.00E+30
    1.00E+30
    1.00E+30
    1.00E+30
    1.00E+30
    1.00E+30
    1.00E+30
    1.00E+30
    1.00E+30
    1.00E+30
    1.00E+30
    1.00E+30
    1.00E+30
    1.00E+30
    1.00E+30
    1.00E+30
    1.00E+30
    1.00E+30
    1.00E+30
    1.00E+30
    1.00E+30
    1.00E+30
    1.00E+30
    1.00E+30
    1.00E+30
    1.00E+30
    1.00E+30
    1.00E+30
    1.00E+30
    1.00E+30
    2154.25527
    2150.97011
    2227.55591
    2256.51235
    2268.80755
    2270.62958
    2273.23176
    2274.75865
    2278.16943
    2282.39611
    2292.08419
    2303.74348
    2316.13558
    2328.84471
    2331.01219
    2332.43186
    2347.81765
    2343.6646
    2328.18245
    2325.99347
    2326.52038
    2325.91166
    2326.24192
    2333.10598
    2347.37835
    2361.62607
    2372.62803
    2392.10524
    2399.38071
    2400.70015
    2401.50654
    2402.18753
    2401.89331
    1.00E+30
    1.00E+30
    1.00E+30
    1.00E+30
    1.00E+30
    1.00E+30
    1.00E+30
    1.00E+30
    1.00E+30
    1.00E+30
    1.00E+30
    1.00E+30
    1.00E+30
    1.00E+30
    1.00E+30
    1.00E+30
    1.00E+30
    1.00E+30
    1.00E+30
    1.00E+30
    1.00E+30
    1.00E+30
    1.00E+30
    1.00E+30
    1.00E+30
    1.00E+30
    1.00E+30
    1.00E+30
    1.00E+30
    1.00E+30
    1.00E+30
    2155.55331
    2156.95045
    2162.7267
    2232.58435
    2268.83211
    2275.91018
    2276.24943
    2278.20732
    2280.33905
    2284.46599
    2290.52489
    2301.72687
    2315.94321
    2339.86819
    2355.2658
    2344.01684
    2341.61205
    2344.77567
    2346.17375
    2345.25023
    2344.42573
    2345.34121
    2341.77045
    2341.22738
    2345.56965
    2354.09465
    2365.39111
    2377.62447
    2394.21331
    2399.32659
    2401.16811
    2402.53441
    2405.80142
    1.00E+30
    1.00E+30
    1.00E+30
    1.00E+30
    1.00E+30
    1.00E+30
    1.00E+30
    1.00E+30
    1.00E+30
    1.00E+30
    1.00E+30
    1.00E+30
    1.00E+30
    1.00E+30
    1.00E+30
    1.00E+30
    1.00E+30
    1.00E+30
    1.00E+30
    1.00E+30
    1.00E+30
    1.00E+30
    1.00E+30
    1.00E+30
    1.00E+30
    1.00E+30
    1.00E+30
    1.00E+30
    1.00E+30
    1.00E+30
    1.00E+30
    1.00E+30
    2162.65457
    2162.65363
    2194.12125
    2258.80743
    2278.13266
    2280.15266
    2281.3943
    2284.56361
    2287.71971
    2290.66582
    2296.81354
    2309.78855
    2325.15032
    2352.52703
    2362.96281
    2353.90047
    2350.86431
    2351.37011
    2350.71807
    2351.24599
    2354.09771
    2358.9182
    2358.06748
    2357.07164
    2356.09927
    2361.21337
    2371.73272
    2380.88796
    2390.87244
    2398.29215
    2404.01784
    2408.34122
    2410.47686
    1.00E+30
    1.00E+30
    1.00E+30
    1.00E+30
    1.00E+30
    1.00E+30
    1.00E+30
    1.00E+30
    1.00E+30
    1.00E+30
    1.00E+30
    1.00E+30
    1.00E+30
    1.00E+30
    1.00E+30
    1.00E+30
    1.00E+30
    1.00E+30
    1.00E+30
    1.00E+30
    1.00E+30
    1.00E+30
    1.00E+30
    1.00E+30
    1.00E+30
    1.00E+30
    1.00E+30
    1.00E+30
    1.00E+30
    1.00E+30
    1.00E+30
    1.00E+30
    2164.59021
    2176.49238
    2199.65659
    2254.15836
    2278.90229
    2283.08075
    2287.32158
    2290.73512
    2293.19778
    2295.85666
    2302.31711
    2318.66375
    2330.9662
    2350.30453
    2374.39867
    2364.97732
    2361.33803
    2361.62425
    2359.91386
    2359.1209
    2361.76451
    2364.95976
    2366.70901
    2366.59452
    2365.28482
    2369.81781
    2375.90288
    2380.8019
    2388.69078
    2404.85149
    2423.18055
    2455.18339
    2555.06665
    2704.4975
    1.00E+30
    1.00E+30
    1.00E+30
    1.00E+30
    1.00E+30
    1.00E+30
    1.00E+30
    1.00E+30
    1.00E+30
    1.00E+30
    1.00E+30
    1.00E+30
    1.00E+30
    1.00E+30
    1.00E+30
    1.00E+30
    1.00E+30
    1.00E+30
    1.00E+30
    1.00E+30
    1.00E+30
    1.00E+30
    1.00E+30
    1.00E+30
    1.00E+30
    1.00E+30
    1.00E+30
    1.00E+30
    1.00E+30
    1.00E+30
    1.00E+30
    2166.18312
    2173.67758
    2185.19729
    2237.98973
    2276.52308
    2286.5169
    2292.20638
    2295.82677
    2298.2539
    2303.20038
    2311.53085
    2324.7745
    2342.29042
    2359.47393
    2371.57338
    2373.15158
    2371.26677
    2371.23099
    2369.24479
    2368.99425
    2370.46189
    2371.50957
    2372.04498
    2371.87367
    2372.25556
    2374.28342
    2377.91935
    2383.61786
    2395.12089
    2421.01262
    2455.94361
    2514.29163
    2605.68975
    2722.48749
    1.00E+30
    1.00E+30
    1.00E+30
    1.00E+30
    1.00E+30
    1.00E+30
    1.00E+30
    1.00E+30
    1.00E+30
    1.00E+30
    1.00E+30
    1.00E+30
    1.00E+30
    1.00E+30
    1.00E+30
    1.00E+30
    1.00E+30
    1.00E+30
    1.00E+30
    1.00E+30
    1.00E+30
    1.00E+30
    1.00E+30
    1.00E+30
    1.00E+30
    1.00E+30
    1.00E+30
    1.00E+30
    1.00E+30
    1.00E+30
    1.00E+30
    2168.02094
    2176.77452
    2180.03766
    2205.46222
    2242.1068
    2277.56646
    2296.46338
    2302.69338
    2306.20597
    2311.07291
    2319.24729
    2331.50036
    2348.86808
    2363.76068
    2376.68301
    2378.64795
    2377.87707
    2378.64472
    2377.28782
    2377.73844
    2377.11872
    2378.27208
    2378.98327
    2378.97894
    2379.37877
    2380.35234
    2383.57753
    2391.43003
    2409.38179
    2452.05819
    2495.83341
    2540.35314
    2577.6973
    2621.75961
    2619.42547
    2623.95582
    1.00E+30
    1.00E+30
    1.00E+30
    1.00E+30
    1.00E+30
    1.00E+30
    1.00E+30
    1.00E+30
    1.00E+30
    1.00E+30
    1.00E+30
    1.00E+30
    1.00E+30
    1.00E+30
    1.00E+30
    1.00E+30
    1.00E+30
    1.00E+30
    1.00E+30
    1.00E+30
    1.00E+30
    1.00E+30
    1.00E+30
    1.00E+30
    1.00E+30
    1.00E+30
    1.00E+30
    1.00E+30
    1.00E+30
    2169.94493
    2205.43614
    2226.20398
    2211.86179
    2215.97728
    2236.10573
    2282.14265
    2306.52242
    2314.00903
    2321.53922
    2330.18373
    2339.65788
    2355.11137
    2373.33412
    2379.28281
    2381.25393
    2382.22982
    2383.17079
    2383.51823
    2383.25751
    2383.16213
    2384.33533
    2385.89685
    2387.94347
    2388.71115
    2390.51544
    2398.32459
    2404.85531
    2425.3543
    2471.1253
    2513.76119
    2548.63051
    2566.10288
    2586.52054
    2606.71172
    2629.05681
    2674.03847
    1.00E+30
    1.00E+30
    1.00E+30
    1.00E+30
    1.00E+30
    1.00E+30
    1.00E+30
    1.00E+30
    1.00E+30
    1.00E+30
    1.00E+30
    1.00E+30
    1.00E+30
    1.00E+30
    1.00E+30
    1.00E+30
    1.00E+30
    1.00E+30
    1.00E+30
    1.00E+30
    1.00E+30
    1.00E+30
    1.00E+30
    1.00E+30
    1.00E+30
    1.00E+30
    1.00E+30
    1.00E+30
    2169.92632
    2195.29932
    2205.61398
    2229.62244
    2225.1329
    2245.9478
    2247.09266
    2290.41817
    2311.5569
    2321.18822
    2326.88425
    2335.50086
    2352.52169
    2374.29578
    2380.09954
    2383.36732
    2385.6129
    2386.25744
    2387.08047
    2387.7641
    2388.16559
    2390.49887
    2392.70145
    2397.09113
    2397.86328
    2401.22899
    2409.36232
    2420.12449
    2443.94346
    2482.87442
    2519.78077
    2547.24164
    2562.97034
    2576.83669
    2597.24033
    2630.99147
    2675.61166
    1.00E+30
    1.00E+30
    1.00E+30
    1.00E+30
    1.00E+30
    1.00E+30
    1.00E+30
    1.00E+30
    1.00E+30
    1.00E+30
    1.00E+30
    1.00E+30
    1.00E+30
    1.00E+30
    1.00E+30
    1.00E+30
    1.00E+30
    1.00E+30
    1.00E+30
    1.00E+30
    1.00E+30
    1.00E+30
    1.00E+30
    1.00E+30
    1.00E+30
    1.00E+30
    1.00E+30
    2171.8603
    2171.11282
    2195.94169
    2208.71143
    2234.44859
    2235.60807
    2230.42454
    2242.35439
    2254.99613
    2281.63494
    2300.25062
    2319.63989
    2343.2373
    2362.38259
    2369.53097
    2379.61111
    2386.5202
    2388.04957
    2388.05423
    2388.74866
    2390.28248
    2392.12732
    2394.23203
    2397.14042
    2402.06711
    2405.36555
    2411.31515
    2419.99185
    2434.27932
    2459.07337
    2497.14034
    2525.27294
    2547.29996
    2561.01278
    2573.03992
    2593.16626
    2613.87798
    2676.72397
    2807.99777
    3060.02094
    2893.18258
    1.00E+30
    1.00E+30
    1.00E+30
    1.00E+30
    1.00E+30
    1.00E+30
    1.00E+30
    1.00E+30
    1.00E+30
    1.00E+30
    1.00E+30
    1.00E+30
    1.00E+30
    1.00E+30
    1.00E+30
    1.00E+30
    1.00E+30
    1.00E+30
    1.00E+30
    1.00E+30
    1.00E+30
    1.00E+30
    1.00E+30
    2172.49917
    2172.53921
    2195.9727
    2208.87004
    2234.17285
    2249.53086
    2262.77209
    2261.33905
    2277.00769
    2263.31941
    2296.55358
    2333.95394
    2351.4589
    2377.87878
    2346.10665
    2363.46235
    2376.96726
    2387.00133
    2388.35329
    2387.9635
    2388.2873
    2390.07007
    2392.19244
    2394.47239
    2397.93489
    2401.82423
    2406.65168
    2413.81811
    2428.43917
    2448.70181
    2476.26794
    2506.63021
    2533.98698
    2551.05912
    2562.44164
    2576.5228
    2601.28772
    2618.5693
    2644.06998
    2707.68469
    2773.43821
    2780.96185
    2785.16952
    1.00E+30
    1.00E+30
    1.00E+30
    1.00E+30
    1.00E+30
    1.00E+30
    1.00E+30
    1.00E+30
    1.00E+30
    1.00E+30
    1.00E+30
    1.00E+30
    1.00E+30
    1.00E+30
    1.00E+30
    1.00E+30
    1.00E+30
    1.00E+30
    1.00E+30
    1.00E+30
    1.00E+30
    2174.05104
    2192.8199
    2209.77672
    2223.34216
    2235.7701
    2254.80667
    2279.43259
    2308.58623
    2312.00723
    2272.83759
    2282.91115
    2307.5051
    2320.28675
    2310.04258
    2312.98691
    2343.82145
    2369.71247
    2381.50172
    2389.24201
    2388.5689
    2386.11129
    2385.4097
    2387.36563
    2390.56669
    2392.67703
    2396.71367
    2400.90102
    2406.10957
    2416.19331
    2438.29688
    2477.84997
    2519.49524
    2519.51672
    2527.13066
    2531.28586
    2577.26825
    2600.00262
    2658.41114
    2694.99441
    2639.34555
    2658.42847
    2687.86271
    2718.036
    2758.56553
    1.00E+30
    1.00E+30
    1.00E+30
    1.00E+30
    1.00E+30
    1.00E+30
    1.00E+30
    1.00E+30
    1.00E+30
    1.00E+30
    1.00E+30
    1.00E+30
    1.00E+30
    1.00E+30
    1.00E+30
    1.00E+30
    1.00E+30
    1.00E+30
    1.00E+30
    1.00E+30
    1.00E+30
    2175.63965
    2201.89386
    2212.27953
    2222.23376
    2234.35526
    2263.7848
    2294.28531
    2327.95478
    2362.14647
    2354.3197
    2349.17411
    2303.19471
    2312.45678
    2319.70555
    2330.45433
    2336.49625
    2352.83336
    2377.02722
    2392.01821
    2388.33172
    2378.66985
    2376.79553
    2382.31836
    2389.41765
    2389.21794
    2394.8645
    2400.31972
    2406.48303
    2418.10449
    2434.86392
    2452.89991
    2468.60335
    2478.53439
    2493.91557
    2508.55294
    2531.6743
    2555.27162
    2633.11152
    2670.90164
    2626.3671
    2633.07246
    2652.70797
    2676.49317
    2716.97997
    2745.54826
    1.00E+30
    1.00E+30
    1.00E+30
    1.00E+30
    1.00E+30
    1.00E+30
    1.00E+30
    1.00E+30
    1.00E+30
    1.00E+30
    1.00E+30
    1.00E+30
    1.00E+30
    1.00E+30
    1.00E+30
    1.00E+30
    1.00E+30
    1.00E+30
    1.00E+30
    1.00E+30
    2177.3181
    2199.51958
    2203.94587
    2210.08527
    2224.62145
    2260.69626
    2299.29821
    2332.71052
    2395.13163
    2391.06129
    2386.67106
    2373.82622
    2324.3314
    2327.87892
    2332.51357
    2337.06769
    2349.18595
    2347.89677
    2385.9681
    2388.14986
    2378.20653
    2378.26591
    2386.11677
    2392.03032
    2393.99501
    2398.02247
    2401.54754
    2407.80817
    2420.73701
    2435.40664
    2453.14631
    2463.40629
    2475.61595
    2485.51279
    2499.67226
    2508.22105
    2524.03794
    2593.54296
    2605.68688
    2611.35032
    2620.86573
    2641.34367
    2656.35077
    2686.70222
    2784.22215
    2938.35283
    1.00E+30
    1.00E+30
    1.00E+30
    1.00E+30
    1.00E+30
    1.00E+30
    1.00E+30
    1.00E+30
    1.00E+30
    1.00E+30
    1.00E+30
    1.00E+30
    1.00E+30
    1.00E+30
    1.00E+30
    1.00E+30
    1.00E+30
    1.00E+30
    1.00E+30
    2178.48081
    2180.42258
    2181.84085
    2183.23923
    2184.0009
    2226.01067
    2278.55296
    2327.90532
    2368.89039
    2383.75075
    2387.7751
    2380.77243
    2365.50275
    2354.61888
    2338.52041
    2337.68535
    2342.54972
    2347.8279
    2357.51327
    2370.41931
    2371.55492
    2373.998
    2385.76808
    2394.07748
    2397.80844
    2400.97136
    2402.66009
    2411.32569
    2424.0942
    2434.82049
    2446.0503
    2459.76801
    2468.50501
    2484.02538
    2496.70477
    2508.29875
    2522.65132
    2537.56298
    2551.01268
    2608.3362
    2620.36648
    2632.17555
    2647.47729
    2669.59316
    2722.90256
    2779.11453
    2757.8931
    1.00E+30
    1.00E+30
    1.00E+30
    1.00E+30
    1.00E+30
    1.00E+30
    1.00E+30
    1.00E+30
    1.00E+30
    1.00E+30
    1.00E+30
    1.00E+30
    1.00E+30
    1.00E+30
    1.00E+30
    1.00E+30
    1.00E+30
    1.00E+30
    1.00E+30
    1.00E+30
    1.00E+30
    1.00E+30
    2183.62975
    2184.37243
    2189.16905
    2258.40423
    2318.52038
    2376.41375
    2380.07004
    2378.10133
    2374.37137
    2368.6405
    2348.51822
    2347.09026
    2351.06397
    2361.23051
    2366.81754
    2367.67655
    2354.29342
    2371.21385
    2389.03699
    2397.52279
    2401.96488
    2406.2782
    2410.44784
    2416.4053
    2432.79211
    2463.73753
    2487.61624
    2513.35236
    2535.25823
    2554.66354
    2567.25565
    2575.43588
    2581.77018
    2585.26184
    2557.09523
    2570.60257
    2583.92824
    2624.30642
    2642.46955
    2669.99948
    2700.94207
    2724.36244
    2717.55841
    1.00E+30
    1.00E+30
    1.00E+30
    1.00E+30
    1.00E+30
    1.00E+30
    1.00E+30
    1.00E+30
    1.00E+30
    1.00E+30
    1.00E+30
    1.00E+30
    1.00E+30
    1.00E+30
    1.00E+30
    1.00E+30
    1.00E+30
    1.00E+30
    1.00E+30
    1.00E+30
    1.00E+30
    1.00E+30
    1.00E+30
    1.00E+30
    2191.45435
    2237.54394
    2287.2827
    2347.45849
    2375.42239
    2374.51029
    2375.62807
    2376.69569
    2379.83608
    2370.38285
    2367.89114
    2365.17689
    2375.05901
    2378.78773
    2376.4899
    2376.34084
    2390.5444
    2400.64977
    2405.58038
    2411.08873
    2415.6016
    2422.49733
    2440.97372
    2479.84582
    2497.54537
    2528.35034
    2545.6968
    2556.54971
    2568.26434
    2575.54328
    2583.89367
    2598.88667
    2609.26095
    2618.46042
    2616.33786
    2603.59749
    2635.40308
    2676.37704
    2702.57571
    2722.80489
    2703.77725
    1.00E+30
    1.00E+30
    1.00E+30
    1.00E+30
    1.00E+30
    1.00E+30
    1.00E+30
    1.00E+30
    1.00E+30
    1.00E+30
    1.00E+30
    1.00E+30
    1.00E+30
    1.00E+30
    1.00E+30
    1.00E+30
    1.00E+30
    1.00E+30
    1.00E+30
    1.00E+30
    1.00E+30
    1.00E+30
    1.00E+30
    1.00E+30
    2192.53111
    2193.20178
    2273.62915
    2305.68417
    2368.52187
    2372.20477
    2376.69733
    2380.11776
    2383.85341
    2387.68882
    2394.04069
    2400.02135
    2401.55668
    2397.12597
    2393.43047
    2392.07859
    2393.52518
    2402.19908
    2410.11771
    2416.57461
    2422.78555
    2432.67314
    2451.49156
    2479.82301
    2499.41394
    2518.68188
    2534.17946
    2548.0879
    2562.07319
    2577.56766
    2591.56643
    2608.76019
    2632.75018
    2639.02243
    2635.33777
    2632.12234
    2621.6662
    2668.01975
    2685.6095
    2694.74023
    2691.35901
    2695.06723
    1.00E+30
    1.00E+30
    1.00E+30
    1.00E+30
    1.00E+30
    1.00E+30
    1.00E+30
    1.00E+30
    1.00E+30
    1.00E+30
    1.00E+30
    1.00E+30
    1.00E+30
    1.00E+30
    1.00E+30
    1.00E+30
    1.00E+30
    1.00E+30
    1.00E+30
    1.00E+30
    1.00E+30
    1.00E+30
    1.00E+30
    1.00E+30
    2193.85364
    2194.21348
    2273.10886
    2354.45849
    2368.71079
    2374.28857
    2379.73038
    2388.58657
    2396.10126
    2405.68841
    2414.80731
    2417.0172
    2411.58814
    2408.15237
    2404.19994
    2400.98939