# File generated by Flopy version 3.3.2 on 05/05/2022 at 16:48:58.
BEGIN options
END options

BEGIN continuous  FILEOUT  tv_scenario-lowell_obs.csv
  lowell  ghb  lowell
END continuous  FILEOUT  tv_scenario-lowell_obs.csv

