BEGIN options
  auxiliary  multiplier
  AUXMULTNAME  multiplier
  BOUNDNAMES
  SAVE_FLOWS
  OBS6  FILEIN  mf6-tv_scenario.riv.obs
END options
 
BEGIN dimensions
  MAXBOUND  200
END dimensions
 
BEGIN period  1
  1 1 9    2107.50000000   9.4702710E+05    2105.50000000       0.53680600  riv08
  1 1 10    2104.90000000   9.4702710E+05    2102.90000000       0.75550475  riv08
  1 2 7    2111.40000000   9.4702710E+05    2109.40000000       0.57656941  riv08
  1 2 8    2110.20000000   9.4702710E+05    2108.20000000       1.05373030  riv08
  1 2 9    2109.70000000   2.0481100E+05    2107.20000000       0.97420349  riv05
  1 2 9    2109.70000000   9.4702710E+05    2107.20000000       0.59645112  riv08
  1 3 7    2112.60000000   9.4702710E+05    2110.60000000       0.49704260  riv08
  1 3 8    2113.80000000   9.4702710E+05    2111.80000000       0.51692430  riv08
  1 3 9    2115.60000000   2.0481100E+05    2113.10000000       1.21278394  riv05
  1 4 8    2114.80000000   9.4702710E+05    2112.80000000       0.91455838  riv08
  1 4 9    2125.80000000   2.0481100E+05    2123.30000000       0.49704260  riv05
  1 4 10    2125.80000000   2.0481100E+05    2123.30000000       0.61633282  riv05
  1 5 8    2123.00000000   9.4702710E+05    2121.00000000       1.19290223  riv08
  1 5 9    2123.00000000   9.4702710E+05    2121.00000000       0.63621452  riv08
  1 5 10    2130.40000000   2.0481100E+05    2127.80000000       1.21278394  riv05
  1 6 9    2122.30000000   9.4702710E+05    2120.30000000       1.01396690  riv08
  1 6 11    2136.80000000   3.3801730E+04    2134.20000000       1.15313882  riv06
  1 6 12    2145.50000000   3.3801730E+04    2142.80000000       1.21278394  riv06
  1 6 13    2152.00000000   3.3801730E+04    2149.20000000       1.21278394  riv06
  1 7 9    2121.60000000   9.4702710E+05    2119.60000000       0.89467667  riv08
  1 7 14    2161.00000000   3.3801730E+04    2158.10000000       1.17302053  riv06
  1 7 15    2166.20000000   3.3801730E+04    2163.30000000       1.25254734  riv06
  1 8 9    2120.90000000   9.4702710E+05    2118.90000000       1.23266564  riv08
  1 8 16    2176.20000000   3.3801730E+04    2173.20000000       1.61041801  riv06
  1 9 9    2127.60000000   9.4702710E+05    2125.60000000       1.67006312  riv08
  1 9 17    2186.30000000   3.3801730E+04    2183.20000000       1.17302053  riv06
  1 10 8    2130.50000000   9.4702710E+05    2128.50000000       1.41160097  riv08
  1 10 18    2196.30000000   3.3801730E+04    2193.10000000       1.23266564  riv06
  1 11 7    2134.60000000   9.4702710E+05    2132.60000000       0.53680600  riv08
  1 11 8    2134.60000000   9.4702710E+05    2132.60000000       1.19290223  riv08
  1 11 19    2210.30000000   3.3801730E+04    2207.00000000       1.11337542  riv06
  1 11 20    2215.20000000   3.3801730E+04    2211.80000000       1.07361201  riv06
  1 11 21    2221.70000000   3.3801730E+04    2218.30000000       0.39763408  riv06
  1 12 8    2135.80000000   9.4702710E+05    2133.80000000       1.13325712  riv08
  1 12 21    2221.90000000   3.3801730E+04    2218.40000000       1.37183757  riv06
  1 13 8    2137.00000000   9.4702710E+05    2135.00000000       1.23266564  riv08
  1 13 21    2231.40000000   3.3801730E+04    2227.90000000       0.45727919  riv06
  1 13 22    2236.10000000   3.3801730E+04    2232.50000000       1.23266564  riv06
  1 13 34    2385.00000000   2.5801510E+04    2380.90000000       1.31219245  riv07
  1 14 7    2137.20000000   9.4702710E+05    2135.20000000       0.93444008  riv08
  1 14 8    2137.10000000   9.4702710E+05    2135.10000000       0.87479497  riv08
  1 14 23    2246.60000000   3.3801730E+04    2242.90000000       1.19290223  riv06
  1 14 24    2256.80000000   3.3801730E+04    2253.10000000       0.71574134  riv06
  1 14 34    2382.30000000   2.5801510E+04    2378.20000000       1.05373030  riv07
  1 15 7    2144.90000000   9.4702710E+05    2142.90000000       1.01396690  riv08
  1 15 24    2261.80000000   3.3801730E+04    2258.00000000       0.53680600  riv06
  1 15 25    2266.80000000   2.5801510E+04    2263.00000000       1.15313882  riv07
  1 15 33    2369.20000000   2.5801510E+04    2365.10000000       1.25254734  riv07
  1 16 7    2149.80000000   9.4702710E+05    2147.80000000       1.05373030  riv08
  1 16 25    2276.20000000   2.5801510E+04    2272.30000000       0.45727919  riv07
  1 16 26    2284.00000000   2.5801510E+04    2280.10000000       1.33207416  riv07
  1 16 27    2292.00000000   2.5801510E+04    2288.10000000       1.23266564  riv07
  1 16 31    2341.90000000   2.5801510E+04    2337.90000000       1.05373030  riv07
  1 16 32    2347.20000000   2.5801510E+04    2343.10000000       1.21278394  riv07
  1 17 6    2154.10000000   4.3771100E+05    2152.10000000       0.85491327  riv09
  1 17 7    2150.60000000   4.3771100E+05    2148.60000000       1.31219245  riv09
  1 17 27    2295.40000000   2.5801510E+04    2291.50000000       0.39763408  riv07
  1 17 28    2307.00000000   2.5801510E+04    2303.10000000       1.11337542  riv07
  1 17 29    2315.10000000   2.5801510E+04    2311.10000000       1.11337542  riv07
  1 17 30    2326.80000000   2.5801510E+04    2322.80000000       0.87479497  riv07
  1 18 5    2155.40000000   4.3771100E+05    2153.40000000       0.93444008  riv09
  1 18 6    2156.70000000   4.3771100E+05    2154.70000000       0.63621452  riv09
  1 19 5    2162.60000000   4.3771100E+05    2160.60000000       1.21278394  riv09
  1 19 6    2162.30000000   4.3771100E+05    2160.30000000       0.67597793  riv09
  1 20 5    2164.50000000   4.3771100E+05    2162.50000000       1.23266564  riv09
  1 21 5    2166.30000000   1.3533390E+05    2164.60000000       0.49704260  riv01
  1 21 5    2166.30000000   4.3771100E+05    2164.60000000       1.07361201  riv09
  1 21 6    2173.50000000   1.3533390E+05    2171.80000000       1.09349371  riv01
  1 22 5    2167.90000000   4.3771100E+05    2165.90000000       1.05373030  riv09
  1 22 6    2175.80000000   1.3533390E+05    2174.10000000       0.61633282  riv01
  1 22 7    2179.70000000   1.3533390E+05    2178.00000000       1.27242905  riv01
  1 23 5    2169.80000000   4.3771100E+05    2167.80000000       1.05373030  riv09
  1 23 8    2189.80000000   8.9206020E+03    2188.20000000       1.13325712  riv02
  1 24 5    2169.80000000   4.3771100E+05    2167.80000000       1.05373030  riv09
  1 24 8    2194.40000000   8.9206020E+03    2192.80000000       0.59645112  riv02
  1 24 9    2201.90000000   8.9206020E+03    2200.30000000       1.41160097  riv02
  1 24 10    2208.20000000   8.9206020E+03    2206.60000000       0.55668771  riv02
  1 25 4    2171.80000000   4.3771100E+05    2169.80000000       0.53680600  riv09
  1 25 5    2170.90000000   4.3771100E+05    2168.90000000       0.77538645  riv09
  1 25 10    2214.10000000   8.9206020E+03    2212.50000000       1.61041801  riv02
  1 26 3    2172.40000000   4.3771100E+05    2170.40000000       1.05373030  riv09
  1 26 4    2172.20000000   4.3771100E+05    2170.20000000       0.69585964  riv09
  1 26 11    2224.60000000   8.9206020E+03    2223.10000000       1.39171927  riv02
  1 26 12    2231.10000000   8.9206020E+03    2229.60000000       1.17302053  riv02
  1 26 13    2239.80000000   8.9206020E+03    2238.30000000       0.43739748  riv02
  1 27 2    2173.70000000   4.3771100E+05    2171.70000000       0.83503156  riv09
  1 27 13    2244.40000000   8.9206020E+03    2242.90000000       0.83503156  riv02
  1 27 14    2253.10000000   8.9206020E+03    2251.60000000       1.03384860  riv02
  1 27 15    2259.70000000   8.9206020E+03    2258.30000000       1.09349371  riv02
  1 27 16    2269.60000000   8.9206020E+03    2268.20000000       1.27242905  riv02
  1 27 17    2279.80000000   8.9206020E+03    2278.40000000       0.47716089  riv02
  1 28 2    2175.30000000   4.3771100E+05    2173.30000000       1.05373030  riv09
  1 28 17    2282.90000000   8.9206020E+03    2281.50000000       1.13325712  riv02
  1 28 18    2289.00000000   8.9206020E+03    2287.60000000       0.79526815  riv02
  1 29 2    2177.00000000   4.3771100E+05    2175.00000000       1.01396690  riv09
  1 29 18    2294.30000000   8.9206020E+03    2293.00000000       0.41751578  riv02
  1 29 19    2300.90000000   8.9206020E+03    2299.60000000       1.55077290  riv02
  1 29 22    2343.50000000   8.9206020E+03    2342.20000000       1.01396690  riv02
  1 29 23    2347.20000000   8.9206020E+03    2345.90000000       1.15313882  riv02
  1 29 24    2355.10000000   8.9206020E+03    2353.80000000       1.05373030  riv02
  1 29 25    2364.80000000   8.9206020E+03    2363.50000000       1.31219245  riv02
  1 29 26    2375.10000000   8.9206020E+03    2373.80000000       1.21278394  riv02
  1 29 35    2484.50000000   1.3488400E+05    2483.10000000       0.57656941  riv03
  1 29 36    2499.50000000   1.3488400E+05    2498.10000000       1.33207416  riv03
  1 29 37    2508.30000000   1.3488400E+05    2506.90000000       1.33207416  riv03
  1 29 38    2523.80000000   1.3488400E+05    2522.40000000       1.17302053  riv03
  1 30 2    2178.30000000   4.3771100E+05    2176.30000000       1.13325712  riv09
  1 30 3    2180.30000000   4.3771100E+05    2178.30000000       1.17302053  riv09
  1 30 4    2181.60000000   4.3771100E+05    2179.60000000       1.07361201  riv09
  1 30 5    2183.10000000   4.3771100E+05    2181.10000000       1.11337542  riv09
  1 30 6    2183.60000000   4.3771100E+05    2181.60000000       0.45727919  riv09
  1 30 19    2305.10000000   8.9206020E+03    2303.80000000       0.57656941  riv02
  1 30 20    2314.60000000   8.9206020E+03    2313.30000000       1.45136438  riv02
  1 30 21    2324.30000000   8.9206020E+03    2323.00000000       1.05373030  riv02
  1 30 22    2333.30000000   8.9206020E+03    2332.00000000       0.95432179  riv02
  1 30 27    2389.40000000   8.9206020E+03    2388.10000000       1.21278394  riv02
  1 30 28    2399.70000000   1.3488400E+05    2398.40000000       1.27242905  riv03
  1 30 29    2411.40000000   1.3488400E+05    2410.10000000       1.41160097  riv03
  1 30 30    2424.20000000   1.3488400E+05    2422.90000000       1.19290223  riv03
  1 30 31    2434.20000000   1.3488400E+05    2432.90000000       1.11337542  riv03
  1 30 32    2445.20000000   1.3488400E+05    2443.90000000       1.09349371  riv03
  1 30 33    2459.10000000   1.3488400E+05    2457.80000000       1.21278394  riv03
  1 30 34    2467.60000000   1.3488400E+05    2466.30000000       1.17302053  riv03
  1 30 35    2482.60000000   1.3488400E+05    2481.60000000       1.00402605  riv03
  1 30 36    2495.20000000   1.3488400E+05    2494.80000000       1.15313882  riv03
  1 30 37    2507.10000000   1.3488400E+05    2506.70000000       1.19290223  riv03
  1 30 38    2521.10000000   1.3488400E+05    2520.70000000       1.15313882  riv03
  1 30 39    2535.70000000   1.3488400E+05    2534.80000000       1.23266564  riv03
  1 30 40    2549.40000000   1.3488400E+05    2548.00000000       1.25254734  riv03
  1 31 6    2183.60000000   4.3771100E+05    2181.60000000       0.59645112  riv09
  1 31 7    2184.30000000   4.3771100E+05    2182.30000000       1.01396690  riv09
  1 31 8    2188.80000000   4.3771100E+05    2186.80000000       0.95432179  riv09
  1 31 40    2553.40000000   1.3488400E+05    2553.00000000       0.85491327  riv03
  1 31 41    2567.40000000   1.3488400E+05    2566.40000000       1.01396690  riv03
  1 31 42    2580.30000000   1.3488400E+05    2578.90000000       1.13325712  riv03
  1 32 8    2191.40000000   4.3771100E+05    2189.40000000       1.01396690  riv09
  1 32 43    2599.60000000   2.5553600E+05    2598.20000000       1.19290223  riv04
  1 33 8    2192.50000000   4.3771100E+05    2190.50000000       0.75550475  riv09
  1 33 9    2193.10000000   7.3109900E+05    2191.10000000       0.67597793  riv10
  1 33 44    2621.00000000   2.5553600E+05    2619.60000000       1.23266564  riv04
  1 34 9    2193.80000000   7.3109900E+05    2191.80000000       0.51692430  riv10
  1 34 10    2194.10000000   7.3109900E+05    2192.10000000       0.97420349  riv10
  1 34 45    2644.70000000   2.5553600E+05    2643.30000000       1.37183757  riv04
  1 35 10    2197.60000000   7.3109900E+05    2195.55000000       0.49704260  riv10
  1 35 11    2201.00000000   7.3109900E+05    2199.00000000       0.77538645  riv10
  1 35 46    2663.30000000   2.5553600E+05    2661.90000000       1.15313882  riv04
  1 35 47    2675.10000000   2.5553600E+05    2673.70000000       1.19290223  riv04
  1 36 11    2201.50000000   7.3109900E+05    2199.50000000       0.57656941  riv10
  1 36 12    2202.00000000   7.3109900E+05    2200.00000000       1.03384860  riv10
  1 36 13    2205.20000000   7.3109900E+05    2203.20000000       0.99408519  riv10
  1 36 14    2205.70000000   7.3109900E+05    2203.70000000       1.11337542  riv10
  1 36 48    2694.80000000   2.5553600E+05    2693.40000000       1.37183757  riv04
  1 37 15    2205.70000000   7.3109900E+05    2203.70000000       1.29231075  riv10
  1 37 49    2714.60000000   2.5553600E+05    2713.20000000       1.07361201  riv04
  1 38 16    2205.70000000   7.3109900E+05    2203.70000000       1.19290223  riv10
  1 38 50    2734.00000000   2.5553600E+05    2732.60000000       1.31219245  riv04
  1 38 51    2760.20000000   2.5553600E+05    2758.80000000       0.83503156  riv04
  1 39 16    2205.50000000   7.3109900E+05    2203.53000000       1.05373030  riv10
  1 39 51    2764.50000000   2.5553600E+05    2763.10000000       0.97420349  riv04
  1 40 17    2205.40000000   1.0329699E+04    2203.37000000       1.13325712  riv11
  1 40 52    2797.70000000   2.5553600E+05    2796.30000000       1.13325712  riv04
  1 40 53    2797.70000000   2.5553600E+05    2796.30000000       0.73562304  riv04
  1 41 17    2205.20000000   1.0329699E+04    2203.20000000       1.07361201  riv11
  1 41 53    2797.70000000   2.5553600E+05    2796.30000000       0.59645112  riv04
  1 42 17    2205.20000000   1.0329699E+04    2203.25000000       0.99408519  riv11
  1 43 17    2205.30000000   1.0329699E+04    2203.30000000       1.01396690  riv11
  1 44 17    2205.30000000   1.0329699E+04    2203.30000000       0.89467667  riv11
  1 45 18    2205.30000000   1.0329699E+04    2203.30000000       1.11337542  riv11
  1 45 19    2205.30000000   1.0329699E+04    2203.30000000       0.59645112  riv11
  1 46 19    2210.50000000   1.0329699E+04    2208.50000000       0.87479497  riv11
  1 47 20    2212.10000000   1.0329699E+04    2210.10000000       1.15313882  riv11
  1 48 21    2214.10000000   1.0329699E+04    2212.10000000       1.33207416  riv11
  1 49 22    2215.70000000   3.7217010E+05    2213.70000000       1.39171927  riv12
  1 50 23    2219.00000000   3.7217010E+05    2217.00000000       1.35195586  riv12
  1 51 24    2221.30000000   3.7217010E+05    2219.30000000       1.09349371  riv12
  1 51 25    2223.40000000   3.7217010E+05    2221.40000000       0.79526815  riv12
  1 52 25    2233.60000000   3.7217010E+05    2231.60000000       0.59645112  riv12
  1 52 26    2239.60000000   3.7217010E+05    2237.60000000       0.63621452  riv12
  1 53 26    2241.00000000   3.7217010E+05    2239.00000000       1.11337542  riv12
  1 54 27    2244.50000000   3.7217010E+05    2242.50000000       0.63621452  riv12
  1 55 27    2244.50000000   3.7217010E+05    2242.50000000       1.17302053  riv12
  1 56 28    2244.50000000   6.0580130E+05    2242.50000000       1.15313882  riv13
  1 56 29    2244.50000000   6.0580130E+05    2242.50000000       1.05373030  riv13
  1 56 30    2242.20000000   6.0580130E+05    2240.20000000       1.01396690  riv13
  1 57 31    2239.90000000   6.0580130E+05    2237.90000000       1.35195586  riv13
  1 57 32    2240.30000000   6.0580130E+05    2238.30000000       1.17302053  riv13
  1 57 33    2250.80000000   6.0580130E+05    2248.80000000       1.01396690  riv13
  1 57 34    2252.90000000   6.0580130E+05    2250.90000000       1.07361201  riv13
  1 57 35    2257.00000000   6.0580130E+05    2255.00000000       1.13325712  riv13
  1 57 36    2262.50000000   6.0580130E+05    2260.50000000       0.83503156  riv13
  1 58 36    2264.60000000   6.0580130E+05    2262.60000000       1.07361201  riv13
  1 59 36    2270.90000000   6.0580130E+05    2268.90000000       0.59645112  riv13
  1 59 37    2274.10000000   6.0580130E+05    2272.10000000       0.75550475  riv13
  1 60 37    2277.30000000   6.0580130E+05    2275.30000000       0.71574134  riv13
  1 60 38    2296.80000000   6.0580130E+05    2294.80000000       0.45727919  riv13
  1 61 38    2296.80000000   6.0580130E+05    2294.80000000       1.05373030  riv13
  1 62 37    2295.30000000   6.0580130E+05    2293.30000000       1.03384860  riv13
  1 63 37    2293.80000000   6.0580130E+05    2291.80000000       0.99408519  riv13
  1 64 37    2295.80000000   6.0580130E+05    2293.80000000       0.51692430  riv13
  1 64 38    2297.10000000   6.0580130E+05    2295.10000000       0.89467667  riv13
END period  1
 
BEGIN period  2
  1 1 9    2107.50000000   9.4702710E+05    2105.50000000       0.53680600  riv08
  1 1 10    2104.90000000   9.4702710E+05    2102.90000000       0.75550475  riv08
  1 2 7    2111.40000000   9.4702710E+05    2109.40000000       0.57656941  riv08
  1 2 8    2110.20000000   9.4702710E+05    2108.20000000       1.05373030  riv08
  1 2 9    2109.30000000   2.0481100E+05    2107.20000000       0.97420349  riv05
  1 2 9    2109.30000000   9.4702710E+05    2107.20000000       0.59645112  riv08
  1 3 7    2112.60000000   9.4702710E+05    2110.60000000       0.49704260  riv08
  1 3 8    2113.80000000   9.4702710E+05    2111.80000000       0.51692430  riv08
  1 3 9    2115.20000000   2.0481100E+05    2113.10000000       1.21278394  riv05
  1 4 8    2114.80000000   9.4702710E+05    2112.80000000       0.91455838  riv08
  1 4 9    2125.40000000   2.0481100E+05    2123.30000000       0.49704260  riv05
  1 4 10    2125.40000000   2.0481100E+05    2123.30000000       0.61633282  riv05
  1 5 8    2123.00000000   9.4702710E+05    2121.00000000       1.19290223  riv08
  1 5 9    2123.00000000   9.4702710E+05    2121.00000000       0.63621452  riv08
  1 5 10    2129.90000000   2.0481100E+05    2127.80000000       1.21278394  riv05
  1 6 9    2122.30000000   9.4702710E+05    2120.30000000       1.01396690  riv08
  1 6 11    2136.40000000   3.3801730E+04    2134.20000000       1.15313882  riv06
  1 6 12    2145.10000000   3.3801730E+04    2142.80000000       1.21278394  riv06
  1 6 13    2151.60000000   3.3801730E+04    2149.20000000       1.21278394  riv06
  1 7 9    2121.60000000   9.4702710E+05    2119.60000000       0.89467667  riv08
  1 7 14    2160.60000000   3.3801730E+04    2158.10000000       1.17302053  riv06
  1 7 15    2165.90000000   3.3801730E+04    2163.30000000       1.25254734  riv06
  1 8 9    2120.90000000   9.4702710E+05    2118.90000000       1.23266564  riv08
  1 8 16    2175.90000000   3.3801730E+04    2173.20000000       1.61041801  riv06
  1 9 9    2127.60000000   9.4702710E+05    2125.60000000       1.67006312  riv08
  1 9 17    2186.00000000   3.3801730E+04    2183.20000000       1.17302053  riv06
  1 10 8    2130.50000000   9.4702710E+05    2128.50000000       1.41160097  riv08
  1 10 18    2196.00000000   3.3801730E+04    2193.10000000       1.23266564  riv06
  1 11 7    2134.60000000   9.4702710E+05    2132.60000000       0.53680600  riv08
  1 11 8    2134.60000000   9.4702710E+05    2132.60000000       1.19290223  riv08
  1 11 19    2209.90000000   3.3801730E+04    2207.00000000       1.11337542  riv06
  1 11 20    2214.80000000   3.3801730E+04    2211.80000000       1.07361201  riv06
  1 11 21    2221.40000000   3.3801730E+04    2218.30000000       0.39763408  riv06
  1 12 8    2135.80000000   9.4702710E+05    2133.80000000       1.13325712  riv08
  1 12 21    2221.60000000   3.3801730E+04    2218.40000000       1.37183757  riv06
  1 13 8    2137.00000000   9.4702710E+05    2135.00000000       1.23266564  riv08
  1 13 21    2231.10000000   3.3801730E+04    2227.90000000       0.45727919  riv06
  1 13 22    2235.80000000   3.3801730E+04    2232.50000000       1.23266564  riv06
  1 13 34    2384.80000000   2.5801510E+04    2380.90000000       1.31219245  riv07
  1 14 7    2137.20000000   9.4702710E+05    2135.20000000       0.93444008  riv08
  1 14 8    2137.10000000   9.4702710E+05    2135.10000000       0.87479497  riv08
  1 14 23    2246.30000000   3.3801730E+04    2242.90000000       1.19290223  riv06
  1 14 24    2256.60000000   3.3801730E+04    2253.10000000       0.71574134  riv06
  1 14 34    2382.00000000   2.5801510E+04    2378.20000000       1.05373030  riv07
  1 15 7    2144.90000000   9.4702710E+05    2142.90000000       1.01396690  riv08
  1 15 24    2261.50000000   3.3801730E+04    2258.00000000       0.53680600  riv06
  1 15 25    2266.60000000   2.5801510E+04    2263.00000000       1.15313882  riv07
  1 15 33    2368.90000000   2.5801510E+04    2365.10000000       1.25254734  riv07
  1 16 7    2149.80000000   9.4702710E+05    2147.80000000       1.05373030  riv08
  1 16 25    2275.90000000   2.5801510E+04    2272.30000000       0.45727919  riv07
  1 16 26    2283.70000000   2.5801510E+04    2280.10000000       1.33207416  riv07
  1 16 27    2291.70000000   2.5801510E+04    2288.10000000       1.23266564  riv07
  1 16 31    2341.70000000   2.5801510E+04    2337.90000000       1.05373030  riv07
  1 16 32    2346.90000000   2.5801510E+04    2343.10000000       1.21278394  riv07
  1 17 6    2154.10000000   4.3771100E+05    2152.10000000       0.85491327  riv09
  1 17 7    2150.60000000   4.3771100E+05    2148.60000000       1.31219245  riv09
  1 17 27    2295.20000000   2.5801510E+04    2291.50000000       0.39763408  riv07
  1 17 28    2306.80000000   2.5801510E+04    2303.10000000       1.11337542  riv07
  1 17 29    2314.80000000   2.5801510E+04    2311.10000000       1.11337542  riv07
  1 17 30    2326.50000000   2.5801510E+04    2322.80000000       0.87479497  riv07
  1 18 5    2155.40000000   4.3771100E+05    2153.40000000       0.93444008  riv09
  1 18 6    2156.70000000   4.3771100E+05    2154.70000000       0.63621452  riv09
  1 19 5    2162.60000000   4.3771100E+05    2160.60000000       1.21278394  riv09
  1 19 6    2162.30000000   4.3771100E+05    2160.30000000       0.67597793  riv09
  1 20 5    2164.50000000   4.3771100E+05    2162.50000000       1.23266564  riv09
  1 21 5    2169.40000000   1.3533390E+05    2164.60000000       0.49704260  riv01
  1 21 5    2169.40000000   4.3771100E+05    2164.60000000       1.07361201  riv09
  1 21 6    2176.60000000   1.3533390E+05    2171.80000000       1.09349371  riv01
  1 22 5    2167.90000000   4.3771100E+05    2165.90000000       1.05373030  riv09
  1 22 6    2178.90000000   1.3533390E+05    2174.10000000       0.61633282  riv01
  1 22 7    2182.80000000   1.3533390E+05    2178.00000000       1.27242905  riv01
  1 23 5    2169.80000000   4.3771100E+05    2167.80000000       1.05373030  riv09
  1 23 8    2193.00000000   8.9206020E+03    2188.20000000       1.13325712  riv02
  1 24 5    2169.80000000   4.3771100E+05    2167.80000000       1.05373030  riv09
  1 24 8    2197.70000000   8.9206020E+03    2192.80000000       0.59645112  riv02
  1 24 9    2205.20000000   8.9206020E+03    2200.30000000       1.41160097  riv02
  1 24 10    2211.60000000   8.9206020E+03    2206.60000000       0.55668771  riv02
  1 25 4    2171.80000000   4.3771100E+05    2169.80000000       0.53680600  riv09
  1 25 5    2170.90000000   4.3771100E+05    2168.90000000       0.77538645  riv09
  1 25 10    2217.50000000   8.9206020E+03    2212.50000000       1.61041801  riv02
  1 26 3    2172.40000000   4.3771100E+05    2170.40000000       1.05373030  riv09
  1 26 4    2172.20000000   4.3771100E+05    2170.20000000       0.69585964  riv09
  1 26 11    2228.20000000   8.9206020E+03    2223.10000000       1.39171927  riv02
  1 26 12    2234.80000000   8.9206020E+03    2229.60000000       1.17302053  riv02
  1 26 13    2243.50000000   8.9206020E+03    2238.30000000       0.43739748  riv02
  1 27 2    2173.70000000   4.3771100E+05    2171.70000000       0.83503156  riv09
  1 27 13    2248.20000000   8.9206020E+03    2242.90000000       0.83503156  riv02
  1 27 14    2256.90000000   8.9206020E+03    2251.60000000       1.03384860  riv02
  1 27 15    2263.70000000   8.9206020E+03    2258.30000000       1.09349371  riv02
  1 27 16    2273.60000000   8.9206020E+03    2268.20000000       1.27242905  riv02
  1 27 17    2283.90000000   8.9206020E+03    2278.40000000       0.47716089  riv02
  1 28 2    2175.30000000   4.3771100E+05    2173.30000000       1.05373030  riv09
  1 28 17    2287.00000000   8.9206020E+03    2281.50000000       1.13325712  riv02
  1 28 18    2293.20000000   8.9206020E+03    2287.60000000       0.79526815  riv02
  1 29 2    2177.00000000   4.3771100E+05    2175.00000000       1.01396690  riv09
  1 29 18    2298.60000000   8.9206020E+03    2293.00000000       0.41751578  riv02
  1 29 19    2305.20000000   8.9206020E+03    2299.60000000       1.55077290  riv02
  1 29 22    2348.00000000   8.9206020E+03    2342.20000000       1.01396690  riv02
  1 29 23    2351.60000000   8.9206020E+03    2345.90000000       1.15313882  riv02
  1 29 24    2359.50000000   8.9206020E+03    2353.80000000       1.05373030  riv02
  1 29 25    2369.20000000   8.9206020E+03    2363.50000000       1.31219245  riv02
  1 29 26    2379.40000000   8.9206020E+03    2373.80000000       1.21278394  riv02
  1 29 35    2488.30000000   1.3488400E+05    2483.10000000       0.57656941  riv03
  1 29 36    2503.30000000   1.3488400E+05    2498.10000000       1.33207416  riv03
  1 29 37    2512.10000000   1.3488400E+05    2506.90000000       1.33207416  riv03
  1 29 38    2527.50000000   1.3488400E+05    2522.40000000       1.17302053  riv03
  1 30 2    2178.30000000   4.3771100E+05    2176.30000000       1.13325712  riv09
  1 30 3    2180.30000000   4.3771100E+05    2178.30000000       1.17302053  riv09
  1 30 4    2181.60000000   4.3771100E+05    2179.60000000       1.07361201  riv09
  1 30 5    2183.10000000   4.3771100E+05    2181.10000000       1.11337542  riv09
  1 30 6    2183.60000000   4.3771100E+05    2181.60000000       0.45727919  riv09
  1 30 19    2309.50000000   8.9206020E+03    2303.80000000       0.57656941  riv02
  1 30 20    2319.10000000   8.9206020E+03    2313.30000000       1.45136438  riv02
  1 30 21    2328.80000000   8.9206020E+03    2323.00000000       1.05373030  riv02
  1 30 22    2337.80000000   8.9206020E+03    2332.00000000       0.95432179  riv02
  1 30 27    2393.70000000   8.9206020E+03    2388.10000000       1.21278394  riv02
  1 30 28    2403.90000000   1.3488400E+05    2398.40000000       1.27242905  riv03
  1 30 29    2415.60000000   1.3488400E+05    2410.10000000       1.41160097  riv03
  1 30 30    2428.40000000   1.3488400E+05    2422.90000000       1.19290223  riv03
  1 30 31    2438.30000000   1.3488400E+05    2432.90000000       1.11337542  riv03
  1 30 32    2449.30000000   1.3488400E+05    2443.90000000       1.09349371  riv03
  1 30 33    2463.10000000   1.3488400E+05    2457.80000000       1.21278394  riv03
  1 30 34    2471.60000000   1.3488400E+05    2466.30000000       1.17302053  riv03
  1 30 35    2486.00000000   1.3488400E+05    2481.60000000       1.00402605  riv03
  1 30 36    2497.60000000   1.3488400E+05    2494.80000000       1.15313882  riv03
  1 30 37    2509.50000000   1.3488400E+05    2506.70000000       1.19290223  riv03
  1 30 38    2523.50000000   1.3488400E+05    2520.70000000       1.15313882  riv03
  1 30 39    2538.70000000   1.3488400E+05    2534.80000000       1.23266564  riv03
  1 30 40    2553.00000000   1.3488400E+05    2548.00000000       1.25254734  riv03
  1 31 6    2183.60000000   4.3771100E+05    2181.60000000       0.59645112  riv09
  1 31 7    2184.30000000   4.3771100E+05    2182.30000000       1.01396690  riv09
  1 31 8    2188.80000000   4.3771100E+05    2186.80000000       0.95432179  riv09
  1 31 40    2555.80000000   1.3488400E+05    2553.00000000       0.85491327  riv03
  1 31 41    2570.50000000   1.3488400E+05    2566.40000000       1.01396690  riv03
  1 31 42    2583.90000000   1.3488400E+05    2578.90000000       1.13325712  riv03
  1 32 8    2191.40000000   4.3771100E+05    2189.40000000       1.01396690  riv09
  1 32 43    2603.20000000   2.5553600E+05    2598.20000000       1.19290223  riv04
  1 33 8    2192.50000000   4.3771100E+05    2190.50000000       0.75550475  riv09
  1 33 9    2193.10000000   7.3109900E+05    2191.10000000       0.67597793  riv10
  1 33 44    2624.60000000   2.5553600E+05    2619.60000000       1.23266564  riv04
  1 34 9    2193.80000000   7.3109900E+05    2191.80000000       0.51692430  riv10
  1 34 10    2194.10000000   7.3109900E+05    2192.10000000       0.97420349  riv10
  1 34 45    2648.30000000   2.5553600E+05    2643.30000000       1.37183757  riv04
  1 35 10    2197.60000000   7.3109900E+05    2195.55000000       0.49704260  riv10
  1 35 11    2201.00000000   7.3109900E+05    2199.00000000       0.77538645  riv10
  1 35 46    2666.90000000   2.5553600E+05    2661.90000000       1.15313882  riv04
  1 35 47    2678.70000000   2.5553600E+05    2673.70000000       1.19290223  riv04
  1 36 11    2201.50000000   7.3109900E+05    2199.50000000       0.57656941  riv10
  1 36 12    2202.00000000   7.3109900E+05    2200.00000000       1.03384860  riv10
  1 36 13    2205.20000000   7.3109900E+05    2203.20000000       0.99408519  riv10
  1 36 14    2205.70000000   7.3109900E+05    2203.70000000       1.11337542  riv10
  1 36 48    2698.40000000   2.5553600E+05    2693.40000000       1.37183757  riv04
  1 37 15    2205.70000000   7.3109900E+05    2203.70000000       1.29231075  riv10
  1 37 49    2718.20000000   2.5553600E+05    2713.20000000       1.07361201  riv04
  1 38 16    2205.70000000   7.3109900E+05    2203.70000000       1.19290223  riv10
  1 38 50    2737.60000000   2.5553600E+05    2732.60000000       1.31219245  riv04