# File generated by Flopy version 3.3.2 on 05/05/2022 at 16:48:41.
BEGIN options
  TIME_UNITS  days
  START_DATE_TIME  2025-01-01t00:00:00
END options

BEGIN dimensions
  NPER  120
END dimensions

BEGIN perioddata
      31.00000000  1       1.50000000
      28.00000000  1       1.50000000
      31.00000000  1       1.50000000
      30.00000000  1       1.50000000
      31.00000000  1       1.50000000
      30.00000000  1       1.50000000
      31.00000000  1       1.50000000
      31.00000000  1       1.50000000
      30.00000000  1       1.50000000
      31.00000000  1       1.50000000
      30.00000000  1       1.50000000
      31.00000000  1       1.50000000
	  31.00000000  1       1.50000000
      28.00000000  1       1.50000000
      31.00000000  1       1.50000000
      30.00000000  1       1.50000000
      31.00000000  1       1.50000000
      30.00000000  1       1.50000000
      31.00000000  1       1.50000000
      31.00000000  1       1.50000000
      30.00000000  1       1.50000000
      31.00000000  1       1.50000000
      30.00000000  1       1.50000000
      31.00000000  1       1.50000000
	  31.00000000  1       1.50000000
      28.00000000  1       1.50000000
      31.00000000  1       1.50000000
      30.00000000  1       1.50000000
      31.00000000  1       1.50000000
      30.00000000  1       1.50000000
      31.00000000  1       1.50000000
      31.00000000  1       1.50000000
      30.00000000  1       1.50000000
      31.00000000  1       1.50000000
      30.00000000  1       1.50000000
      31.00000000  1       1.50000000
	  31.00000000  1       1.50000000
      28.00000000  1       1.50000000
      31.00000000  1       1.50000000
      30.00000000  1       1.50000000
      31.00000000  1       1.50000000
      30.00000000  1       1.50000000
      31.00000000  1       1.50000000
      31.00000000  1       1.50000000
      30.00000000  1       1.50000000
      31.00000000  1       1.50000000
      30.00000000  1       1.50000000
      31.00000000  1       1.50000000
	  31.00000000  1       1.50000000
      28.00000000  1       1.50000000
      31.00000000  1       1.50000000
      30.00000000  1       1.50000000
      31.00000000  1       1.50000000
      30.00000000  1       1.50000000
      31.00000000  1       1.50000000
      31.00000000  1       1.50000000
      30.00000000  1       1.50000000
      31.00000000  1       1.50000000
      30.00000000  1       1.50000000
      31.00000000  1       1.50000000
	  31.00000000  1       1.50000000
      28.00000000  1       1.50000000
      31.00000000  1       1.50000000
      30.00000000  1       1.50000000
      31.00000000  1       1.50000000
      30.00000000  1       1.50000000
      31.00000000  1       1.50000000
      31.00000000  1       1.50000000
      30.00000000  1       1.50000000
      31.00000000  1       1.50000000
      30.00000000  1       1.50000000
      31.00000000  1       1.50000000
	  31.00000000  1       1.50000000
      28.00000000  1       1.50000000
      31.00000000  1       1.50000000
      30.00000000  1       1.50000000
      31.00000000  1       1.50000000
      30.00000000  1       1.50000000
      31.00000000  1       1.50000000
      31.00000000  1       1.50000000
      30.00000000  1       1.50000000
      31.00000000  1       1.50000000
      30.00000000  1       1.50000000
      31.00000000  1       1.50000000
	  31.00000000  1       1.50000000
      28.00000000  1       1.50000000
      31.00000000  1       1.50000000
      30.00000000  1       1.50000000
      31.00000000  1       1.50000000
      30.00000000  1       1.50000000
      31.00000000  1       1.50000000
      31.00000000  1       1.50000000
      30.00000000  1       1.50000000
      31.00000000  1       1.50000000
      30.00000000  1       1.50000000
      31.00000000  1       1.50000000
	  31.00000000  1       1.50000000
      28.00000000  1       1.50000000
      31.00000000  1       1.50000000
      30.00000000  1       1.50000000
      31.00000000  1       1.50000000
      30.00000000  1       1.50000000
      31.00000000  1       1.50000000
      31.00000000  1       1.50000000
      30.00000000  1       1.50000000
      31.00000000  1       1.50000000
      30.00000000  1       1.50000000
      31.00000000  1       1.50000000
	  31.00000000  1       1.50000000
      28.00000000  1       1.50000000
      31.00000000  1       1.50000000
      30.00000000  1       1.50000000
      31.00000000  1       1.50000000
      30.00000000  1       1.50000000
      31.00000000  1       1.50000000
      31.00000000  1       1.50000000
      30.00000000  1       1.50000000
      31.00000000  1       1.50000000
      30.00000000  1       1.50000000
      31.00000000  1       1.50000000
END perioddata

