# File generated by Flopy version 3.3.2 on 07/12/2022 at 14:45:38.
BEGIN options
  HEAD  FILEOUT  mf6-tv_scenario.hds
END options

BEGIN period  1
  SAVE  HEAD  ALL
END period  1

BEGIN period  2
  SAVE  HEAD  ALL
END period  2

BEGIN period  3
  SAVE  HEAD  ALL
END period  3

BEGIN period  4
  SAVE  HEAD  ALL
END period  4

BEGIN period  5
  SAVE  HEAD  ALL
END period  5

BEGIN period  6
  SAVE  HEAD  ALL
END period  6

BEGIN period  7
  SAVE  HEAD  ALL
END period  7

BEGIN period  8
  SAVE  HEAD  ALL
END period  8

BEGIN period  9
  SAVE  HEAD  ALL
END period  9

BEGIN period  10
  SAVE  HEAD  ALL
END period  10

BEGIN period  11
  SAVE  HEAD  ALL
END period  11

BEGIN period  12
  SAVE  HEAD  ALL
END period  12

BEGIN period  13
  SAVE  HEAD  ALL
END period  13

BEGIN period  14
  SAVE  HEAD  ALL
END period  14

BEGIN period  15
  SAVE  HEAD  ALL
END period  15

BEGIN period  16
  SAVE  HEAD  ALL
END period  16

BEGIN period  17
  SAVE  HEAD  ALL
END period  17

BEGIN period  18
  SAVE  HEAD  ALL
END period  18

BEGIN period  19
  SAVE  HEAD  ALL
END period  19

BEGIN period  20
  SAVE  HEAD  ALL
END period  20

BEGIN period  21
  SAVE  HEAD  ALL
END period  21

BEGIN period  22
  SAVE  HEAD  ALL
END period  22

BEGIN period  23
  SAVE  HEAD  ALL
END period  23

BEGIN period  24
  SAVE  HEAD  ALL
END period  24

BEGIN period  25
  SAVE  HEAD  ALL
END period  25

BEGIN period  26
  SAVE  HEAD  ALL
END period  26

BEGIN period  27
  SAVE  HEAD  ALL
END period  27

BEGIN period  28
  SAVE  HEAD  ALL
END period  28

BEGIN period  29
  SAVE  HEAD  ALL
END period  29

BEGIN period  30
  SAVE  HEAD  ALL
END period  30

BEGIN period  31
  SAVE  HEAD  ALL
END period  31

BEGIN period  32
  SAVE  HEAD  ALL
END period  32

BEGIN period  33
  SAVE  HEAD  ALL
END period  33

BEGIN period  34
  SAVE  HEAD  ALL
END period  34

BEGIN period  35
  SAVE  HEAD  ALL
END period  35

BEGIN period  36
  SAVE  HEAD  ALL
END period  36

BEGIN period  37
  SAVE  HEAD  ALL
END period  37

BEGIN period  38
  SAVE  HEAD  ALL
END period  38

BEGIN period  39
  SAVE  HEAD  ALL
END period  39

BEGIN period  40
  SAVE  HEAD  ALL
END period  40

BEGIN period  41
  SAVE  HEAD  ALL
END period  41

BEGIN period  42
  SAVE  HEAD  ALL
END period  42

BEGIN period  43
  SAVE  HEAD  ALL
END period  43

BEGIN period  44
  SAVE  HEAD  ALL
END period  44

BEGIN period  45
  SAVE  HEAD  ALL
END period  45

BEGIN period  46
  SAVE  HEAD  ALL
END period  46

BEGIN period  47
  SAVE  HEAD  ALL
END period  47

BEGIN period  48
  SAVE  HEAD  ALL
END period  48

BEGIN period  49
  SAVE  HEAD  ALL
END period  49

BEGIN period  50
  SAVE  HEAD  ALL
END period  50

BEGIN period  51
  SAVE  HEAD  ALL
END period  51

BEGIN period  52
  SAVE  HEAD  ALL
END period  52

BEGIN period  53
  SAVE  HEAD  ALL
END period  53

BEGIN period  54
  SAVE  HEAD  ALL
END period  54

BEGIN period  55
  SAVE  HEAD  ALL
END period  55

BEGIN period  56
  SAVE  HEAD  ALL
END period  56

BEGIN period  57
  SAVE  HEAD  ALL
END period  57

BEGIN period  58
  SAVE  HEAD  ALL
END period  58

BEGIN period  59
  SAVE  HEAD  ALL
END period  59

BEGIN period  60
  SAVE  HEAD  ALL
END period  60

BEGIN period  61
  SAVE  HEAD  ALL
END period  61

BEGIN period  62
  SAVE  HEAD  ALL
END period  62

BEGIN period  63
  SAVE  HEAD  ALL
END period  63

BEGIN period  64
  SAVE  HEAD  ALL
END period  64

BEGIN period  65
  SAVE  HEAD  ALL
END period  65

BEGIN period  66
  SAVE  HEAD  ALL
END period  66

BEGIN period  67
  SAVE  HEAD  ALL
END period  67

BEGIN period  68
  SAVE  HEAD  ALL
END period  68

BEGIN period  69
  SAVE  HEAD  ALL
END period  69

BEGIN period  70
  SAVE  HEAD  ALL
END period  70

BEGIN period  71
  SAVE  HEAD  ALL
END period  71

BEGIN period  72
  SAVE  HEAD  ALL
END period  72

BEGIN period  73
  SAVE  HEAD  ALL
END period  73

BEGIN period  74
  SAVE  HEAD  ALL
END period  74

BEGIN period  75
  SAVE  HEAD  ALL
END period  75

BEGIN period  76
  SAVE  HEAD  ALL
END period  76

BEGIN period  77
  SAVE  HEAD  ALL
END period  77

BEGIN period  78
  SAVE  HEAD  ALL
END period  78

BEGIN period  79
  SAVE  HEAD  ALL
END period  79

BEGIN period  80
  SAVE  HEAD  ALL
END period  80

BEGIN period  81
  SAVE  HEAD  ALL
END period  81

BEGIN period  82
  SAVE  HEAD  ALL
END period  82

BEGIN period  83
  SAVE  HEAD  ALL
END period  83

BEGIN period  84
  SAVE  HEAD  ALL
END period  84

BEGIN period  85
  SAVE  HEAD  ALL
END period  85

BEGIN period  86
  SAVE  HEAD  ALL
END period  86

BEGIN period  87
  SAVE  HEAD  ALL
END period  87

BEGIN period  88
  SAVE  HEAD  ALL
END period  88

BEGIN period  89
  SAVE  HEAD  ALL
END period  89

BEGIN period  90
  SAVE  HEAD  ALL
END period  90

BEGIN period  91
  SAVE  HEAD  ALL
END period  91

BEGIN period  92
  SAVE  HEAD  ALL
END period  92

BEGIN period  93
  SAVE  HEAD  ALL
END period  93

BEGIN period  94
  SAVE  HEAD  ALL
END period  94

BEGIN period  95
  SAVE  HEAD  ALL
END period  95

BEGIN period  96
  SAVE  HEAD  ALL
END period  96

BEGIN period  97
  SAVE  HEAD  ALL
END period  97

BEGIN period  98
  SAVE  HEAD  ALL
END period  98

BEGIN period  99
  SAVE  HEAD  ALL
END period  99

BEGIN period  100
  SAVE  HEAD  ALL
END period  100

BEGIN period  101
  SAVE  HEAD  ALL
END period  101

BEGIN period  102
  SAVE  HEAD  ALL
END period  102

BEGIN period  103
  SAVE  HEAD  ALL
END period  103

BEGIN period  104
  SAVE  HEAD  ALL
END period  104

BEGIN period  105
  SAVE  HEAD  ALL
END period  105

BEGIN period  106
  SAVE  HEAD  ALL
END period  106

BEGIN period  107
  SAVE  HEAD  ALL
END period  107

BEGIN period  108
  SAVE  HEAD  ALL
END period  108

BEGIN period  109
  SAVE  HEAD  ALL
END period  109

BEGIN period  110
  SAVE  HEAD  ALL
END period  110

BEGIN period  111
  SAVE  HEAD  ALL
END period  111

BEGIN period  112
  SAVE  HEAD  ALL
END period  112

BEGIN period  113
  SAVE  HEAD  ALL
END period  113

BEGIN period  114
  SAVE  HEAD  ALL
END period  114

BEGIN period  115
  SAVE  HEAD  ALL
END period  115

BEGIN period  116
  SAVE  HEAD  ALL
END period  116

BEGIN period  117
  SAVE  HEAD  ALL
END period  117

BEGIN period  118
  SAVE  HEAD  ALL
END period  118

BEGIN period  119
  SAVE  HEAD  ALL
END period  119

BEGIN period  120
  SAVE  HEAD  ALL
END period  120