BEGIN options
  auxiliary  multiplier
  AUXMULTNAME  multiplier
  BOUNDNAMES
  SAVE_FLOWS
  TS6  FILEIN  mf6-tv_hist-pumping_rates-irr.ts
END options

BEGIN dimensions
  MAXBOUND  5657
END dimensions

BEGIN period  1
  1 5 8  pump_irr97   5.6528100E-03  pump_irr97
  5 5 8  pump_irr97   3.8953800E-03  pump_irr97
  1 5 9  pump_irr94   8.8394100E-03  pump_irr94
  1 5 9  pump_irr97   1.6795660E-02  pump_irr97
  5 5 9  pump_irr94   6.2359700E-03  pump_irr94
  5 5 9  pump_irr97   1.1848900E-02  pump_irr97
  1 5 10  pump_irr94   1.8158110E-02  pump_irr94
  1 5 10  pump_irr97   8.6255100E-03  pump_irr97
  5 5 10  pump_irr94   1.1992650E-02  pump_irr94
  5 5 10  pump_irr97   5.6967700E-03  pump_irr97
  1 5 11  pump_irr94   2.7237160E-02  pump_irr94
  5 5 11  pump_irr94   1.7988970E-02  pump_irr94
  1 5 12  pump_irr94   1.0496310E-02  pump_irr94
  5 5 12  pump_irr94   4.5790700E-03  pump_irr94
  1 5 13  pump_irr94   1.5075380E-02  pump_irr94
  1 6 9  pump_irr97   2.9197100E-03  pump_irr97
  5 6 9  pump_irr97   1.8543800E-03  pump_irr97
  1 6 10  pump_irr94   9.2197000E-03  pump_irr94
  1 6 10  pump_irr97   5.8394200E-03  pump_irr97
  5 6 10  pump_irr94   5.8556800E-03  pump_irr94
  5 6 10  pump_irr97   3.7087700E-03  pump_irr97
  1 6 11  pump_irr94   1.8439400E-02  pump_irr94
  1 6 11  pump_irr97   8.7591200E-03  pump_irr97
  5 6 11  pump_irr94   1.1711360E-02  pump_irr94
  5 6 11  pump_irr97   5.5631500E-03  pump_irr97
  1 6 12  pump_irr94   1.8439400E-02  pump_irr94
  1 6 12  pump_irr97   2.9197100E-03  pump_irr97
  5 6 12  pump_irr94   1.1711360E-02  pump_irr94
  5 6 12  pump_irr97   1.8543800E-03  pump_irr97
  1 6 13  pump_irr94   1.9611210E-02  pump_irr94
  1 6 13  pump_irr97   3.1052500E-03  pump_irr97
  5 6 13  pump_irr94   1.0539550E-02  pump_irr94
  5 6 13  pump_irr97   1.6688400E-03  pump_irr97
  1 6 14  pump_irr35   4.5954738E-01  pump_irr35
  1 6 14  pump_irr94   6.9278500E-03  pump_irr94
  1 6 14  pump_irr97   2.1939200E-03  pump_irr97
  5 6 14  pump_irr35   5.4045262E-01  pump_irr35
  5 6 14  pump_irr94   8.1475300E-03  pump_irr94
  5 6 14  pump_irr97   2.5801700E-03  pump_irr97
  1 7 9  pump_irr97   8.7591200E-03  pump_irr97
  5 7 9  pump_irr97   5.5631500E-03  pump_irr97
  1 7 10  pump_irr97   1.1678830E-02  pump_irr97
  5 7 10  pump_irr97   7.4175400E-03  pump_irr97
  1 7 11  pump_irr97   5.8394200E-03  pump_irr97
  5 7 11  pump_irr97   3.7087700E-03  pump_irr97
  1 7 12  pump_irr94   9.1593600E-03  pump_irr94
  1 7 12  pump_irr97   5.8012000E-03  pump_irr97
  5 7 12  pump_irr94   5.9160100E-03  pump_irr94
  5 7 12  pump_irr97   3.7469800E-03  pump_irr97
  1 7 13  pump_irr94   9.1593600E-03  pump_irr94
  1 7 13  pump_irr97   5.8012000E-03  pump_irr97
  5 7 13  pump_irr94   5.9160100E-03  pump_irr94
  5 7 13  pump_irr97   3.7469800E-03  pump_irr97
  1 7 14  pump_irr94   1.3855700E-02  pump_irr94
  1 7 14  pump_irr97   2.1939200E-03  pump_irr97
  5 7 14  pump_irr94   1.6295050E-02  pump_irr94
  5 7 14  pump_irr97   2.5801700E-03  pump_irr97
  1 7 15  pump_irr94   1.3855700E-02  pump_irr94
  1 7 15  pump_irr95   2.6315700E-03  pump_irr95
  1 7 15  pump_irr97   2.1939200E-03  pump_irr97
  5 7 15  pump_irr94   1.6295050E-02  pump_irr94
  5 7 15  pump_irr95   3.0948700E-03  pump_irr95
  5 7 15  pump_irr97   2.5801700E-03  pump_irr97
  1 7 16  pump_irr94   2.7711400E-02  pump_irr94
  1 7 16  pump_irr95   2.6315700E-03  pump_irr95
  5 7 16  pump_irr94   3.2590110E-02  pump_irr94
  5 7 16  pump_irr95   3.0948700E-03  pump_irr95
  1 8 9  pump_irr97   1.4503010E-02  pump_irr97
  5 8 9  pump_irr97   9.3674600E-03  pump_irr97
  1 8 10  pump_irr97   1.7403610E-02  pump_irr97
  5 8 10  pump_irr97   1.1240950E-02  pump_irr97
  1 8 11  pump_irr97   2.9006000E-03  pump_irr97
  5 8 11  pump_irr97   1.8734900E-03  pump_irr97
  1 8 12  pump_irr97   6.0499000E-03  pump_irr97
  5 8 12  pump_irr97   3.4982900E-03  pump_irr97
  1 8 13  pump_irr97   2.6307300E-03  pump_irr97
  4 8 13  pump_irr97   2.5854900E-03  pump_irr97
  5 8 13  pump_irr97   4.3319600E-03  pump_irr97
  1 8 14  pump_irr97   2.4099100E-03  pump_irr97
  5 8 14  pump_irr97   2.3641800E-03  pump_irr97
  1 8 15  pump_irr94   7.6098900E-03  pump_irr94
  1 8 15  pump_irr97   4.8198200E-03  pump_irr97
  5 8 15  pump_irr94   7.4654900E-03  pump_irr94
  5 8 15  pump_irr97   4.7283600E-03  pump_irr97
  1 8 16  pump_irr94   2.8908210E-02  pump_irr94
  1 8 16  pump_irr95   2.7452200E-03  pump_irr95
  1 8 16  pump_irr97   4.5773500E-03  pump_irr97
  5 8 16  pump_irr94   3.1393300E-02  pump_irr94
  5 8 16  pump_irr95   2.9812200E-03  pump_irr95
  5 8 16  pump_irr97   4.9708400E-03  pump_irr97
  1 8 17  pump_irr94   7.5376880E-02  pump_irr94
  1 8 17  pump_irr95   5.7264400E-03  pump_irr95
  1 9 9  pump_irr97   8.0987400E-03  pump_irr97
  5 9 9  pump_irr97   6.2235400E-03  pump_irr97
  1 9 10  pump_irr97   1.1602410E-02  pump_irr97
  5 9 10  pump_irr97   7.4939700E-03  pump_irr97
  1 9 12  pump_irr97   2.6081700E-03  pump_irr97
  4 9 12  pump_irr97   2.5169000E-03  pump_irr97
  5 9 12  pump_irr97   4.4231200E-03  pump_irr97
  1 9 13  pump_irr97   3.5791400E-03  pump_irr97
  4 9 13  pump_irr97   2.7310000E-03  pump_irr97
  5 9 13  pump_irr97   3.2380500E-03  pump_irr97
  1 9 14  pump_irr97   5.1051700E-03  pump_irr97
  4 9 14  pump_irr97   4.2088200E-03  pump_irr97
  5 9 14  pump_irr97   5.0083000E-03  pump_irr97
  1 9 15  pump_irr97   3.4034500E-03  pump_irr97
  4 9 15  pump_irr97   2.8058800E-03  pump_irr97
  5 9 15  pump_irr97   3.3388600E-03  pump_irr97
  1 9 16  pump_irr94   1.5219780E-02  pump_irr94
  1 9 16  pump_irr97   2.4099100E-03  pump_irr97
  5 9 16  pump_irr94   1.4930970E-02  pump_irr94
  5 9 16  pump_irr97   2.3641800E-03  pump_irr97
  1 9 17  pump_irr94   3.6135260E-02  pump_irr94
  1 9 17  pump_irr95   2.7452200E-03  pump_irr95
  1 9 17  pump_irr97   2.2886700E-03  pump_irr97
  5 9 17  pump_irr94   3.9241620E-02  pump_irr94
  5 9 17  pump_irr95   2.9812200E-03  pump_irr95
  5 9 17  pump_irr97   2.4854200E-03  pump_irr97
  1 9 18  pump_irr94   2.2010530E-02  pump_irr94
  1 9 18  pump_irr95   1.6721600E-03  pump_irr95
  4 9 18  pump_irr94   1.6604340E-02  pump_irr94
  4 9 18  pump_irr95   1.2614400E-03  pump_irr95
  5 9 18  pump_irr94   3.6762020E-02  pump_irr94
  5 9 18  pump_irr95   2.7928400E-03  pump_irr95
  1 10 8  pump_irr97   9.5481900E-03  pump_irr97
  1 10 9  pump_irr97   1.1393540E-02  pump_irr97
  1 10 9  pump_irr102   4.5897200E-03  pump_irr102
  5 10 9  pump_irr97   2.9287400E-03  pump_irr97
  5 10 9  pump_irr102   1.1798000E-03  pump_irr102
  1 10 10  pump_irr97   7.7309500E-03  pump_irr97
  1 10 10  pump_irr102   3.1143000E-03  pump_irr102
  5 10 10  pump_irr97   6.5913300E-03  pump_irr97
  5 10 10  pump_irr102   2.6552200E-03  pump_irr102
  1 10 11  pump_irr97   2.8740100E-03  pump_irr97
  1 10 11  pump_irr102   3.4732600E-03  pump_irr102
  5 10 11  pump_irr97   1.9000900E-03  pump_irr97
  5 10 11  pump_irr102   2.2962600E-03  pump_irr102
  1 10 12  pump_irr97   4.5068000E-04  pump_irr97
  4 10 12  pump_irr97   1.8807000E-03  pump_irr97
  5 10 12  pump_irr97   2.4427100E-03  pump_irr97
  1 10 13  pump_irr97   3.4732000E-03  pump_irr97
  4 10 13  pump_irr97   2.7740300E-03  pump_irr97
  5 10 13  pump_irr97   3.3009600E-03  pump_irr97
  1 10 14  pump_irr97   5.1051700E-03  pump_irr97
  4 10 14  pump_irr97   4.2088200E-03  pump_irr97
  5 10 14  pump_irr97   5.0083000E-03  pump_irr97
  1 10 15  pump_irr97   5.1051700E-03  pump_irr97
  4 10 15  pump_irr97   4.2088200E-03  pump_irr97
  5 10 15  pump_irr97   5.0083000E-03  pump_irr97
  1 10 16  pump_irr97   5.1051700E-03  pump_irr97
  4 10 16  pump_irr97   4.2088200E-03  pump_irr97
  5 10 16  pump_irr97   5.0083000E-03  pump_irr97
  1 10 17  pump_irr94   5.0275100E-03  pump_irr94
  1 10 17  pump_irr97   3.1842400E-03  pump_irr97
  4 10 17  pump_irr94   4.5881600E-03  pump_irr94
  4 10 17  pump_irr97   2.9059700E-03  pump_irr97
  5 10 17  pump_irr94   5.4597000E-03  pump_irr94
  5 10 17  pump_irr97   3.4579700E-03  pump_irr97
  1 10 18  pump_irr94   6.0301510E-02  pump_irr94
  1 10 18  pump_irr95   5.7264400E-03  pump_irr95
  1 10 18  pump_irr97   4.7740900E-03  pump_irr97
  1 10 19  pump_irr94   3.6486060E-02  pump_irr94
  1 10 19  pump_irr95   1.6631200E-03  pump_irr95
  4 10 19  pump_irr94   2.7735540E-02  pump_irr94
  4 10 19  pump_irr95   1.2642500E-03  pump_irr95
  5 10 19  pump_irr94   6.1406530E-02  pump_irr94
  5 10 19  pump_irr95   2.7990600E-03  pump_irr95
  1 11 8  pump_irr97   1.9096370E-02  pump_irr97
  1 11 8  pump_irr102   5.7695200E-03  pump_irr102
  1 11 9  pump_irr97   2.1310890E-02  pump_irr97
  1 11 9  pump_irr102   1.1539040E-02  pump_irr102
  1 11 10  pump_irr97   9.5481900E-03  pump_irr97
  1 11 10  pump_irr102   1.1539040E-02  pump_irr102
  1 11 11  pump_irr97   4.7740900E-03  pump_irr97
  1 11 11  pump_irr102   5.7695200E-03  pump_irr102
  4 11 12  pump_irr97   2.0721100E-03  pump_irr97
  4 11 12  pump_irr102   2.5041500E-03  pump_irr102
  5 11 12  pump_irr97   2.7019900E-03  pump_irr97
  5 11 12  pump_irr102   3.2653600E-03  pump_irr102
  1 11 13  pump_irr97   1.7017200E-03  pump_irr97
  1 11 13  pump_irr102   2.0565400E-03  pump_irr102
  4 11 13  pump_irr97   1.4029400E-03  pump_irr97
  4 11 13  pump_irr102   1.6954600E-03  pump_irr102
  5 11 13  pump_irr97   1.6694300E-03  pump_irr97
  5 11 13  pump_irr102   2.0175200E-03  pump_irr102
  1 11 14  pump_irr97   1.7017200E-03  pump_irr97
  1 11 14  pump_irr102   2.0565400E-03  pump_irr102
  4 11 14  pump_irr97   1.4029400E-03  pump_irr97
  4 11 14  pump_irr102   1.6954600E-03  pump_irr102
  5 11 14  pump_irr97   1.6694300E-03  pump_irr97
  5 11 14  pump_irr102   2.0175200E-03  pump_irr102
  1 11 15  pump_irr97   3.4034500E-03  pump_irr97
  1 11 15  pump_irr102   2.0565400E-03  pump_irr102
  4 11 15  pump_irr97   2.8058800E-03  pump_irr97
  4 11 15  pump_irr102   1.6954600E-03  pump_irr102
  5 11 15  pump_irr97   3.3388600E-03  pump_irr97
  5 11 15  pump_irr102   2.0175200E-03  pump_irr102
  1 11 16  pump_irr97   5.1051700E-03  pump_irr97
  1 11 16  pump_irr102   2.0565400E-03  pump_irr102
  4 11 16  pump_irr97   4.2088200E-03  pump_irr97
  4 11 16  pump_irr102   1.6954600E-03  pump_irr102
  5 11 16  pump_irr97   5.0083000E-03  pump_irr97
  5 11 16  pump_irr102   2.0175200E-03  pump_irr102
  1 11 17  pump_irr97   4.7763600E-03  pump_irr97
  1 11 17  pump_irr102   1.9240900E-03  pump_irr102
  4 11 17  pump_irr97   4.3589600E-03  pump_irr97
  4 11 17  pump_irr102   1.7559400E-03  pump_irr102
  5 11 17  pump_irr97   5.1869600E-03  pump_irr97
  5 11 17  pump_irr102   2.0894900E-03  pump_irr102
  1 11 18  pump_irr94   1.5075380E-02  pump_irr94
  1 11 18  pump_irr95   5.7264400E-03  pump_irr95
  1 11 18  pump_irr97   1.4322280E-02  pump_irr97
  1 11 19  pump_irr94   1.3281980E-02  pump_irr94
  1 11 19  pump_irr95   3.3634700E-03  pump_irr95
  1 11 19  pump_irr97   2.8041000E-03  pump_irr97
  4 11 19  pump_irr94   1.0096530E-02  pump_irr94
  4 11 19  pump_irr95   2.5568000E-03  pump_irr95
  4 11 19  pump_irr97   2.1315900E-03  pump_irr97
  5 11 19  pump_irr94   2.1847620E-02  pump_irr94
  5 11 19  pump_irr95   5.5326000E-03  pump_irr95
  5 11 19  pump_irr97   4.6124900E-03  pump_irr97
  1 11 20  pump_irr94   3.1471200E-03  pump_irr94
  1 11 20  pump_irr95   4.7817800E-03  pump_irr95
  4 11 20  pump_irr94   4.2095500E-03  pump_irr94
  4 11 20  pump_irr95   6.3960500E-03  pump_irr95
  5 11 20  pump_irr94   7.7187100E-03  pump_irr94
  5 11 20  pump_irr95   1.1727930E-02  pump_irr95
  1 11 21  pump_irr95   5.0426000E-03  pump_irr95
  4 11 21  pump_irr95   6.8254200E-03  pump_irr95
  5 11 21  pump_irr95   1.1037740E-02  pump_irr95
  1 11 22  pump_irr95   2.5037800E-03  pump_irr95
  4 11 22  pump_irr95   3.4685800E-03  pump_irr95
  5 11 22  pump_irr95   5.4805200E-03  pump_irr95
  1 12 8  pump_irr97   1.9096370E-02  pump_irr97
  1 12 8  pump_irr102   5.7695200E-03  pump_irr102
  1 12 9  pump_irr97   1.9096370E-02  pump_irr97
  1 12 9  pump_irr102   1.1539040E-02  pump_irr102
  1 12 10  pump_irr102   1.1539040E-02  pump_irr102
  1 12 11  pump_irr102   1.1539040E-02  pump_irr102
  4 12 12  pump_irr81   4.3841600E-03  pump_irr81
  4 12 12  pump_irr102   5.0083100E-03  pump_irr102
  5 12 12  pump_irr81   5.7168500E-03  pump_irr81
  5 12 12  pump_irr102   6.5307300E-03  pump_irr102
  1 12 13  pump_irr81   3.6005000E-03  pump_irr81
  1 12 13  pump_irr102   2.0565400E-03  pump_irr102
  4 12 13  pump_irr81   2.9683300E-03  pump_irr81
  4 12 13  pump_irr102   1.6954600E-03  pump_irr102
  5 12 13  pump_irr81   3.5321800E-03  pump_irr81
  5 12 13  pump_irr102   2.0175200E-03  pump_irr102
  1 12 14  pump_irr102   2.3431800E-03  pump_irr102
  4 12 14  pump_irr102   3.2452700E-03  pump_irr102
  5 12 14  pump_irr102   5.9505900E-03  pump_irr102
  1 12 15  pump_irr97   9.6945000E-04  pump_irr97
  1 12 15  pump_irr102   2.3431800E-03  pump_irr102
  4 12 15  pump_irr97   1.3426800E-03  pump_irr97
  4 12 15  pump_irr102   3.2452700E-03  pump_irr102
  5 12 15  pump_irr97   2.4619600E-03  pump_irr97
  5 12 15  pump_irr102   5.9505900E-03  pump_irr102
  1 12 16  pump_irr97   8.9330000E-04  pump_irr97
  1 12 16  pump_irr102   1.0795600E-03  pump_irr102
  4 12 16  pump_irr97   1.3695500E-03  pump_irr97
  4 12 16  pump_irr102   1.6551100E-03  pump_irr102
  5 12 16  pump_irr97   2.5112400E-03  pump_irr97
  5 12 16  pump_irr102   3.0348500E-03  pump_irr102
  1 12 17  pump_irr97   4.7763600E-03  pump_irr97
  1 12 17  pump_irr102   1.9240900E-03  pump_irr102
  4 12 17  pump_irr97   4.3589600E-03  pump_irr97
  4 12 17  pump_irr102   1.7559400E-03  pump_irr102
  5 12 17  pump_irr97   5.1869600E-03  pump_irr97
  5 12 17  pump_irr102   2.0894900E-03  pump_irr102
  1 12 18  pump_irr97   5.2724400E-03  pump_irr97
  4 12 18  pump_irr97   2.8157600E-03  pump_irr97
  5 12 18  pump_irr97   6.2340900E-03  pump_irr97
  1 12 19  pump_irr95   1.3771500E-03  pump_irr95
  1 12 19  pump_irr97   3.4443700E-03  pump_irr97
  4 12 19  pump_irr95   1.4332100E-03  pump_irr95
  4 12 19  pump_irr97   3.5845700E-03  pump_irr97
  5 12 19  pump_irr95   2.9160800E-03  pump_irr95
  5 12 19  pump_irr97   7.2933400E-03  pump_irr97
  1 12 20  pump_irr95   3.4885300E-03  pump_irr95
  4 12 20  pump_irr95   4.8315600E-03  pump_irr95
  5 12 20  pump_irr95   8.8592300E-03  pump_irr95
  1 12 21  pump_irr95   5.0075600E-03  pump_irr95
  4 12 21  pump_irr95   6.9371600E-03  pump_irr95
  5 12 21  pump_irr95   1.0961040E-02  pump_irr95
  1 12 22  pump_irr95   3.5957500E-03  pump_irr95
  4 12 22  pump_irr95   5.7128400E-03  pump_irr95
  5 12 22  pump_irr95   7.8707300E-03  pump_irr95
  1 12 23  pump_irr95   3.1217100E-03  pump_irr95
  4 12 23  pump_irr95   8.1690200E-03  pump_irr95
  5 12 23  pump_irr95   5.7621200E-03  pump_irr95
  6 12 23  pump_irr95   1.2647000E-04  pump_irr95
  1 12 24  pump_irr95   2.8133100E-03  pump_irr95
  4 12 24  pump_irr95   8.0803500E-03  pump_irr95
  5 12 24  pump_irr95   5.5851600E-03  pump_irr95
  6 12 24  pump_irr95   7.0050000E-04  pump_irr95
  1 13 8  pump_irr97   9.5481900E-03  pump_irr97
  1 13 8  pump_irr102   5.7695200E-03  pump_irr102
  1 13 9  pump_irr97   4.7740900E-03  pump_irr97
  1 13 9  pump_irr102   5.7695200E-03  pump_irr102
  1 13 10  pump_irr102   1.1539040E-02  pump_irr102
  1 13 11  pump_irr102   5.7695200E-03  pump_irr102
  1 13 12  pump_irr81   2.7099600E-03  pump_irr81
  1 13 12  pump_irr102   3.0957700E-03  pump_irr102
  4 13 12  pump_irr81   1.4181400E-03  pump_irr81
  4 13 12  pump_irr102   1.6200400E-03  pump_irr102
  5 13 12  pump_irr81   5.9729000E-03  pump_irr81
  5 13 12  pump_irr102   6.8232300E-03  pump_irr102
  4 13 13  pump_irr81   3.4423900E-03  pump_irr81
  4 13 13  pump_irr102   3.9324600E-03  pump_irr102
  5 13 13  pump_irr81   6.6586200E-03  pump_irr81
  5 13 13  pump_irr102   7.6065700E-03  pump_irr102
  1 13 14  pump_irr102   1.9675400E-03  pump_irr102
  4 13 14  pump_irr102   3.3778300E-03  pump_irr102
  5 13 14  pump_irr102   6.1936600E-03  pump_irr102
  1 13 15  pump_irr81   1.8900500E-03  pump_irr81
  1 13 15  pump_irr102   2.1591200E-03  pump_irr102
  4 13 15  pump_irr81   2.8977000E-03  pump_irr81
  4 13 15  pump_irr102   3.3102200E-03  pump_irr102
  5 13 15  pump_irr81   5.3132700E-03  pump_irr81
  5 13 15  pump_irr102   6.0696900E-03  pump_irr102
  1 13 16  pump_irr97   7.3147000E-04  pump_irr97
  1 13 16  pump_irr102   8.8399000E-04  pump_irr102
  4 13 16  pump_irr97   1.4266600E-03  pump_irr97
  4 13 16  pump_irr102   1.7241300E-03  pump_irr102
  5 13 16  pump_irr97   2.6159600E-03  pump_irr97
  5 13 16  pump_irr102   3.1614000E-03  pump_irr102
  1 13 17  pump_irr97   1.2285600E-03  pump_irr97
  1 13 17  pump_irr102   7.4236000E-04  pump_irr102
  4 13 17  pump_irr97   2.4021200E-03  pump_irr97
  4 13 17  pump_irr102   1.4514900E-03  pump_irr102
  5 13 17  pump_irr97   5.9175100E-03  pump_irr97
  5 13 17  pump_irr102   3.5756700E-03  pump_irr102
  1 13 18  pump_irr97   3.3570700E-03  pump_irr97
  1 13 18  pump_irr102   2.0285200E-03  pump_irr102
  4 13 18  pump_irr97   2.0401400E-03  pump_irr97
  4 13 18  pump_irr102   1.2327600E-03  pump_irr102
  5 13 18  pump_irr97   4.1509800E-03  pump_irr97
  5 13 18  pump_irr102   2.5082400E-03  pump_irr102
  1 13 19  pump_irr95   1.1954400E-03  pump_irr95
  1 13 19  pump_irr97   1.9932700E-03  pump_irr97
  1 13 19  pump_irr102   1.2044400E-03  pump_irr102
  4 13 19  pump_irr95   1.5990100E-03  pump_irr95
  4 13 19  pump_irr97   2.6661700E-03  pump_irr97
  4 13 19  pump_irr102   1.6110400E-03  pump_irr102
  5 13 19  pump_irr95   2.9319800E-03  pump_irr95
  5 13 19  pump_irr97   4.8887500E-03  pump_irr97
  5 13 19  pump_irr102   2.9540400E-03  pump_irr102
  1 13 20  pump_irr95   2.5213000E-03  pump_irr95
  1 13 20  pump_irr97   2.1019900E-03  pump_irr97
  1 13 20  pump_irr102   1.2701300E-03  pump_irr102
  4 13 20  pump_irr95   3.4127100E-03  pump_irr95
  4 13 20  pump_irr97   2.8451500E-03  pump_irr97
  4 13 20  pump_irr102   1.7191900E-03  pump_irr102
  5 13 20  pump_irr95   5.5188700E-03  pump_irr95
  5 13 20  pump_irr97   4.6010400E-03  pump_irr97
  5 13 20  pump_irr102   2.7801900E-03  pump_irr102
  1 13 21  pump_irr95   5.0075600E-03  pump_irr95
  1 13 21  pump_irr97   1.0436900E-03  pump_irr97
  4 13 21  pump_irr95   6.9371600E-03  pump_irr95
  4 13 21  pump_irr97   1.4458700E-03  pump_irr97
  5 13 21  pump_irr95   1.0961040E-02  pump_irr95
  5 13 21  pump_irr97   2.2845400E-03  pump_irr97
  1 13 22  pump_irr95   3.3641800E-03  pump_irr95
  4 13 22  pump_irr95   6.4512900E-03  pump_irr95
  5 13 22  pump_irr95   7.3638500E-03  pump_irr95
  1 13 23  pump_irr95   4.1622800E-03  pump_irr95
  4 13 23  pump_irr95   1.0892030E-02  pump_irr95
  5 13 23  pump_irr95   7.6828300E-03  pump_irr95
  6 13 23  pump_irr95   1.6863000E-04  pump_irr95
  1 13 24  pump_irr95   1.8755400E-03  pump_irr95
  4 13 24  pump_irr95   5.3869000E-03  pump_irr95
  5 13 24  pump_irr95   3.7234400E-03  pump_irr95
  6 13 24  pump_irr95   4.6700000E-04  pump_irr95
  4 13 25  pump_irr95   3.4524000E-03  pump_irr95
  5 13 25  pump_irr95   1.8881500E-03  pump_irr95
  6 13 25  pump_irr95   3.8588000E-04  pump_irr95
  4 13 26  pump_irr95   5.0269700E-03  pump_irr95
  6 13 26  pump_irr95   6.9947000E-04  pump_irr95
  4 13 27  pump_irr95   1.0053940E-02  pump_irr95
  6 13 27  pump_irr95   1.3989400E-03  pump_irr95
  4 13 28  pump_irr95   1.0053940E-02  pump_irr95
  6 13 28  pump_irr95   1.3989400E-03  pump_irr95
  4 13 34  pump_irr95   1.1452880E-02  pump_irr95
  4 13 34  pump_irr102   5.7695200E-03  pump_irr102
  1 14 8  pump_irr97   9.5481900E-03  pump_irr97
  1 14 8  pump_irr102   5.7695200E-03  pump_irr102
  1 14 9  pump_irr102   5.7695200E-03  pump_irr102
  1 14 10  pump_irr102   1.1539040E-02  pump_irr102
  1 14 11  pump_irr102   1.1539040E-02  pump_irr102
  1 14 12  pump_irr81   2.6681600E-03  pump_irr81
  1 14 12  pump_irr102   3.0480100E-03  pump_irr102
  4 14 12  pump_irr81   1.3962700E-03  pump_irr81
  4 14 12  pump_irr102   1.5950400E-03  pump_irr102
  5 14 12  pump_irr81   6.0365900E-03  pump_irr81
  5 14 12  pump_irr102   6.8959800E-03  pump_irr102
  4 14 13  pump_irr81   2.6720400E-03  pump_irr81
  4 14 13  pump_irr102   3.0524400E-03  pump_irr102
  5 14 13  pump_irr81   7.4289700E-03  pump_irr81
  5 14 13  pump_irr102   8.4866000E-03  pump_irr102
  4 14 15  pump_irr81   2.6720400E-03  pump_irr81
  4 14 15  pump_irr102   1.5262200E-03  pump_irr102
  5 14 15  pump_irr81   7.4289700E-03  pump_irr81
  5 14 15  pump_irr102   4.2433000E-03  pump_irr102
  4 14 16  pump_irr81   2.6720400E-03  pump_irr81
  4 14 16  pump_irr102   1.5262200E-03  pump_irr102
  5 14 16  pump_irr81   7.4289700E-03  pump_irr81
  5 14 16  pump_irr102   4.2433000E-03  pump_irr102
  4 14 17  pump_irr81   2.6720400E-03  pump_irr81
  4 14 17  pump_irr97   1.2629000E-03  pump_irr97
  4 14 17  pump_irr102   1.5262200E-03  pump_irr102
  5 14 17  pump_irr81   7.4289700E-03  pump_irr81
  5 14 17  pump_irr97   3.5111900E-03  pump_irr97
  5 14 17  pump_irr102   4.2433000E-03  pump_irr102
  4 14 18  pump_irr97   1.2629000E-03  pump_irr97
  4 14 18  pump_irr102   1.5262200E-03  pump_irr102
  5 14 18  pump_irr97   3.5111900E-03  pump_irr97
  5 14 18  pump_irr102   4.2433000E-03  pump_irr102
  1 14 19  pump_irr97   1.9389100E-03  pump_irr97
  1 14 19  pump_irr102   1.1715900E-03  pump_irr102
  4 14 19  pump_irr97   2.6853600E-03  pump_irr97
  4 14 19  pump_irr102   1.6226300E-03  pump_irr102
  5 14 19  pump_irr97   4.9239200E-03  pump_irr97
  5 14 19  pump_irr102   2.9752900E-03  pump_irr102
  1 14 20  pump_irr95   1.2606500E-03  pump_irr95
  1 14 20  pump_irr97   2.1019900E-03  pump_irr97
  1 14 20  pump_irr102   1.2701300E-03  pump_irr102
  4 14 20  pump_irr95   1.7063500E-03  pump_irr95
  4 14 20  pump_irr97   2.8451500E-03  pump_irr97
  4 14 20  pump_irr102   1.7191900E-03  pump_irr102
  5 14 20  pump_irr95   2.7594400E-03  pump_irr95
  5 14 20  pump_irr97   4.6010400E-03  pump_irr97
  5 14 20  pump_irr102   2.7801900E-03  pump_irr102
  1 14 21  pump_irr95   1.2518900E-03  pump_irr95
  1 14 21  pump_irr96   2.0405900E-03  pump_irr96
  1 14 21  pump_irr97   1.0436900E-03  pump_irr97
  1 14 21  pump_irr102   1.2613100E-03  pump_irr102
  4 14 21  pump_irr95   1.7342900E-03  pump_irr95
  4 14 21  pump_irr96   2.8269100E-03  pump_irr96
  4 14 21  pump_irr97   1.4458700E-03  pump_irr97
  4 14 21  pump_irr102   1.7473400E-03  pump_irr102
  5 14 21  pump_irr95   2.7402600E-03  pump_irr95
  5 14 21  pump_irr96   4.4666500E-03  pump_irr96
  5 14 21  pump_irr97   2.2845400E-03  pump_irr97
  5 14 21  pump_irr102   2.7608700E-03  pump_irr102
  1 14 22  pump_irr95   2.0811400E-03  pump_irr95
  1 14 22  pump_irr96   1.6961400E-03  pump_irr96
  1 14 22  pump_irr97   8.6752000E-04  pump_irr97
  4 14 22  pump_irr95   5.4460100E-03  pump_irr95
  4 14 22  pump_irr96   4.4385300E-03  pump_irr96
  4 14 22  pump_irr97   2.2701500E-03  pump_irr97
  5 14 22  pump_irr95   3.8414100E-03  pump_irr95
  5 14 22  pump_irr96   3.1307700E-03  pump_irr96
  5 14 22  pump_irr97   1.6012800E-03  pump_irr97
  6 14 22  pump_irr95   8.4310000E-05  pump_irr95
  6 14 22  pump_irr96   6.8720000E-05  pump_irr96
  6 14 22  pump_irr97   3.5150000E-05  pump_irr97
  1 14 23  pump_irr95   2.8401300E-03  pump_irr95
  4 14 23  pump_irr95   7.9936200E-03  pump_irr95
  5 14 23  pump_irr95   5.6384000E-03  pump_irr95
  6 14 23  pump_irr95   7.0718000E-04  pump_irr95
  1 14 24  pump_irr95   3.6156300E-03  pump_irr95
  4 14 24  pump_irr95   8.2583000E-03  pump_irr95
  5 14 24  pump_irr95   4.4051100E-03  pump_irr95
  6 14 24  pump_irr95   9.0027000E-04  pump_irr95
  4 14 25  pump_irr95   6.9048100E-03  pump_irr95
  5 14 25  pump_irr95   3.7763100E-03  pump_irr95
  6 14 25  pump_irr95   7.7176000E-04  pump_irr95
  4 14 26  pump_irr95   1.0053940E-02  pump_irr95
  6 14 26  pump_irr95   1.3989400E-03  pump_irr95
  4 14 27  pump_irr95   5.0269700E-03  pump_irr95
  6 14 27  pump_irr95   6.9947000E-04  pump_irr95
  4 14 28  pump_irr95   1.5080910E-02  pump_irr95
  6 14 28  pump_irr95   2.0984100E-03  pump_irr95
  4 14 29  pump_irr95   1.7179320E-02  pump_irr95
  4 14 30  pump_irr95   1.1322750E-02  pump_irr95
  6 14 30  pump_irr95   1.3013000E-04  pump_irr95
  4 14 31  pump_irr95   5.6636300E-03  pump_irr95
  6 14 31  pump_irr95   6.2810000E-05  pump_irr95
  4 14 32  pump_irr95   5.6625200E-03  pump_irr95
  6 14 32  pump_irr95   6.3920000E-05  pump_irr95
  1 14 33  pump_irr95   1.4833900E-03  pump_irr95
  1 14 33  pump_irr96   1.2089700E-03  pump_irr96
  1 14 33  pump_irr102   7.4728000E-04  pump_irr102
  4 14 33  pump_irr95   9.9694900E-03  pump_irr95
  4 14 33  pump_irr96   8.1251900E-03  pump_irr96
  4 14 33  pump_irr102   5.0222400E-03  pump_irr102
  4 14 34  pump_irr95   1.1452880E-02  pump_irr95
  4 14 34  pump_irr96   9.3341600E-03  pump_irr96
  4 14 34  pump_irr102   5.7695200E-03  pump_irr102
  4 14 35  pump_irr93   5.0251300E-03  pump_irr93
  4 14 35  pump_irr101   5.0251300E-03  pump_irr101
  4 14 35  pump_irr102   5.7695200E-03  pump_irr102
  1 15 8  pump_irr97   9.5481900E-03  pump_irr97
  1 15 8  pump_irr102   5.7695200E-03  pump_irr102
  1 15 9  pump_irr102   1.1539040E-02  pump_irr102
  1 15 10  pump_irr102   1.1539040E-02  pump_irr102
  5 15 11  pump_irr102   1.1539040E-02  pump_irr102
  1 15 12  pump_irr81   5.3157700E-03  pump_irr81
  1 15 12  pump_irr102   3.0362800E-03  pump_irr102
  4 15 12  pump_irr81   2.7963900E-03  pump_irr81
  4 15 12  pump_irr102   1.5972500E-03  pump_irr102
  5 15 12  pump_irr81   1.2089860E-02  pump_irr81
  5 15 12  pump_irr102   6.9055100E-03  pump_irr102
  4 15 13  pump_irr81   5.3440800E-03  pump_irr81
  4 15 13  pump_irr102   1.5262200E-03  pump_irr102
  5 15 13  pump_irr81   1.4857940E-02  pump_irr81
  5 15 13  pump_irr102   4.2433000E-03  pump_irr102
  4 15 16  pump_irr102   1.5262200E-03  pump_irr102
  5 15 16  pump_irr102   4.2433000E-03  pump_irr102
  4 15 17  pump_irr81   2.6720400E-03  pump_irr81
  4 15 17  pump_irr102   1.5262200E-03  pump_irr102
  5 15 17  pump_irr81   7.4289700E-03  pump_irr81
  5 15 17  pump_irr102   4.2433000E-03  pump_irr102
  4 15 18  pump_irr102   1.5262200E-03  pump_irr102
  5 15 18  pump_irr102   4.2433000E-03  pump_irr102
  1 15 19  pump_irr93   1.1062600E-03  pump_irr93
  1 15 19  pump_irr101   1.1062600E-03  pump_irr101
  1 15 19  pump_irr102   1.2701300E-03  pump_irr102
  4 15 19  pump_irr93   1.4973800E-03  pump_irr93
  4 15 19  pump_irr101   1.4973800E-03  pump_irr101
  4 15 19  pump_irr102   1.7191900E-03  pump_irr102
  5 15 19  pump_irr93   2.4214900E-03  pump_irr93
  5 15 19  pump_irr101   2.4214900E-03  pump_irr101
  5 15 19  pump_irr102   2.7801900E-03  pump_irr102
  1 15 20  pump_irr96   2.0405900E-03  pump_irr96
  1 15 20  pump_irr97   2.0873800E-03  pump_irr97
  1 15 20  pump_irr102   2.5226100E-03  pump_irr102
  4 15 20  pump_irr96   2.8269100E-03  pump_irr96
  4 15 20  pump_irr97   2.8917300E-03  pump_irr97
  4 15 20  pump_irr102   3.4946800E-03  pump_irr102
  5 15 20  pump_irr96   4.4666500E-03  pump_irr96
  5 15 20  pump_irr97   4.5690700E-03  pump_irr97
  5 15 20  pump_irr102   5.5217500E-03  pump_irr102
  1 15 21  pump_irr96   3.9074100E-03  pump_irr96
  1 15 21  pump_irr97   1.9985000E-03  pump_irr97
  1 15 21  pump_irr102   2.4152000E-03  pump_irr102
  4 15 21  pump_irr96   6.2080000E-03  pump_irr96
  4 15 21  pump_irr97   3.1751700E-03  pump_irr97
  4 15 21  pump_irr102   3.8372100E-03  pump_irr102
  5 15 21  pump_irr96   8.5529200E-03  pump_irr96
  5 15 21  pump_irr97   4.3745200E-03  pump_irr97
  5 15 21  pump_irr102   5.2866300E-03  pump_irr102
  1 15 22  pump_irr95   1.0405700E-03  pump_irr95
  1 15 22  pump_irr96   6.7845600E-03  pump_irr96
  1 15 22  pump_irr97   8.6752000E-04  pump_irr97
  4 15 22  pump_irr95   2.7230100E-03  pump_irr95
  4 15 22  pump_irr96   1.7754130E-02  pump_irr96
  4 15 22  pump_irr97   2.2701500E-03  pump_irr97
  5 15 22  pump_irr95   1.9207100E-03  pump_irr95
  5 15 22  pump_irr96   1.2523100E-02  pump_irr96
  5 15 22  pump_irr97   1.6012800E-03  pump_irr97
  6 15 22  pump_irr95   4.2160000E-05  pump_irr95
  6 15 22  pump_irr96   2.7486000E-04  pump_irr96
  6 15 22  pump_irr97   3.5150000E-05  pump_irr97
  1 15 23  pump_irr95   1.8934200E-03  pump_irr95
  1 15 23  pump_irr96   3.0863000E-03  pump_irr96
  4 15 23  pump_irr95   5.3290800E-03  pump_irr95
  4 15 23  pump_irr96   8.6864600E-03  pump_irr96
  5 15 23  pump_irr95   3.7589300E-03  pump_irr95
  5 15 23  pump_irr96   6.1271000E-03  pump_irr96
  6 15 23  pump_irr95   4.7145000E-04  pump_irr95
  6 15 23  pump_irr96   7.6847000E-04  pump_irr96
  1 15 24  pump_irr95   4.2268900E-03  pump_irr95
  1 15 24  pump_irr96   1.7224700E-03  pump_irr96
  4 15 24  pump_irr95   1.1372700E-02  pump_irr95
  4 15 24  pump_irr96   4.6344100E-03  pump_irr96
  5 15 24  pump_irr95   6.0663800E-03  pump_irr95
  5 15 24  pump_irr96   2.4720700E-03  pump_irr96
  6 15 24  pump_irr95   1.2397900E-03  pump_irr95
  6 15 24  pump_irr96   5.0522000E-04  pump_irr96
  4 15 25  pump_irr95   2.0714420E-02  pump_irr95
  5 15 25  pump_irr95   1.1328930E-02  pump_irr95
  6 15 25  pump_irr95   2.3152900E-03  pump_irr95
  4 15 26  pump_irr95   2.5134860E-02  pump_irr95
  6 15 26  pump_irr95   3.4973400E-03  pump_irr95
  1 15 27  pump_irr95   5.3088100E-03  pump_irr95
  4 15 27  pump_irr95   6.1440700E-03  pump_irr95
  1 15 28  pump_irr95   4.7969000E-03  pump_irr95
  4 15 28  pump_irr95   6.6559800E-03  pump_irr95
  1 15 29  pump_irr95   1.6463200E-03  pump_irr95
  4 15 29  pump_irr95   9.7043600E-03  pump_irr95
  6 15 29  pump_irr95   1.0220000E-04  pump_irr95
  1 15 30  pump_irr95   1.6261600E-03  pump_irr95
  4 15 30  pump_irr95   9.5855400E-03  pump_irr95
  6 15 30  pump_irr95   2.4118000E-04  pump_irr95
  4 15 31  pump_irr95   9.9468700E-03  pump_irr95
  6 15 31  pump_irr95   1.5060100E-03  pump_irr95
  4 15 32  pump_irr95   9.9468700E-03  pump_irr95
  4 15 32  pump_irr96   8.1067600E-03  pump_irr96
  6 15 32  pump_irr95   1.5060100E-03  pump_irr95
  6 15 32  pump_irr96   1.2274100E-03  pump_irr96
  4 15 33  pump_irr95   9.9235900E-03  pump_irr95