# File generated by Flopy version 3.3.2 on 05/05/2022 at 16:48:41.
BEGIN options
END options

BEGIN timing
  TDIS6  mf6-tv_hist.tdis
END timing

BEGIN models
  gwf6  mf6-tv_hist.nam  mf6-tv_hist
END models

BEGIN exchanges
END exchanges

BEGIN solutiongroup  1
  ims6  mf6-tv_hist.ims  mf6-tv_hist
END solutiongroup  1

