BEGIN options
  auxiliary  multiplier
  AUXMULTNAME  multiplier
  BOUNDNAMES
  SAVE_FLOWS
  OBS6  FILEIN  mf6-tv_scenario-ny_canal.riv.obs
END options
 
BEGIN dimensions
  MAXBOUND  10
END dimensions
 
BEGIN period  1
  1 40 31    2566.30000000   1.4503640E+04    2564.30000000       0.05173678  nyriv
  1 40 32    2571.00000000   1.4503640E+04    2569.00000000       0.12546357  nyriv
  1 41 26    2531.30000000   1.4503640E+04    2529.30000000       0.05063783  nyriv
  1 41 27    2540.80000000   1.4503640E+04    2538.80000000       0.08627009  nyriv
  1 41 29    2559.80000000   1.4503640E+04    2557.80000000       0.14807757  nyriv
  1 41 30    2565.10000000   1.4503640E+04    2563.10000000       0.11950779  nyriv
  1 41 31    2565.10000000   1.4503640E+04    2563.10000000       0.13574564  nyriv
  1 42 27    2550.90000000   1.4503640E+04    2548.90000000       0.06163535  nyriv
  1 42 28    2556.20000000   1.4503640E+04    2554.20000000       0.12520502  nyriv
  1 42 29    2556.20000000   1.4503640E+04    2554.20000000       0.09572036  nyriv
END period  1
