# File generated by Flopy version 3.3.2 on 05/05/2022 at 16:48:56.
BEGIN options
END options

BEGIN continuous  FILEOUT  tv_scenario-ny_canal_riv_obs.csv
  nyriv  riv  nyriv
END continuous  FILEOUT  tv_scenario-ny_canal_riv_obs.csv

