# File generated by Flopy version 3.3.2 on 05/05/2022 at 16:48:41.
BEGIN options
  LENGTH_UNITS  feet
  XORIGIN  7.37209903E+06
  YORIGIN  4.38282440E+06
  ANGROT      -2.00000000
END options

BEGIN dimensions
  NLAY  6
  NROW  64
  NCOL  65
END dimensions

BEGIN griddata
  delr
    INTERNAL  FACTOR  1.0
      5280.00000000    5280.00000000    5280.00000000    5280.00000000    5280.00000000    5280.00000000    5280.00000000    5280.00000000    5280.00000000    5280.00000000    5280.00000000    5280.00000000    5280.00000000    5280.00000000    5280.00000000    5280.00000000    5280.00000000    5280.00000000    5280.00000000    5280.00000000
      5280.00000000    5280.00000000    5280.00000000    5280.00000000    5280.00000000    5280.00000000    5280.00000000    5280.00000000    5280.00000000    5280.00000000    5280.00000000    5280.00000000    5280.00000000    5280.00000000    5280.00000000    5280.00000000    5280.00000000    5280.00000000    5280.00000000    5280.00000000
      5280.00000000    5280.00000000    5280.00000000    5280.00000000    5280.00000000    5280.00000000    5280.00000000    5280.00000000    5280.00000000    5280.00000000    5280.00000000    5280.00000000    5280.00000000    5280.00000000    5280.00000000    5280.00000000    5280.00000000    5280.00000000    5280.00000000    5280.00000000
      5280.00000000    5280.00000000    5280.00000000    5280.00000000    5280.00000000
  delc
    INTERNAL  FACTOR  1.0
      5280.00000000    5280.00000000    5280.00000000    5280.00000000    5280.00000000    5280.00000000    5280.00000000    5280.00000000    5280.00000000    5280.00000000    5280.00000000    5280.00000000    5280.00000000    5280.00000000    5280.00000000    5280.00000000    5280.00000000    5280.00000000    5280.00000000    5280.00000000
      5280.00000000    5280.00000000    5280.00000000    5280.00000000    5280.00000000    5280.00000000    5280.00000000    5280.00000000    5280.00000000    5280.00000000    5280.00000000    5280.00000000    5280.00000000    5280.00000000    5280.00000000    5280.00000000    5280.00000000    5280.00000000    5280.00000000    5280.00000000
      5280.00000000    5280.00000000    5280.00000000    5280.00000000    5280.00000000    5280.00000000    5280.00000000    5280.00000000    5280.00000000    5280.00000000    5280.00000000    5280.00000000    5280.00000000    5280.00000000    5280.00000000    5280.00000000    5280.00000000    5280.00000000    5280.00000000    5280.00000000
      5280.00000000    5280.00000000    5280.00000000    5280.00000000
  top
    INTERNAL  FACTOR  1.0
         0.00000000       0.00000000       0.00000000       0.00000000       0.00000000       0.00000000    2335.83014936    2190.02816412    2135.00069372    2141.36892361    2193.19732267    2335.01841557    2531.91895652    2724.41779632    2763.78032673    2720.35493398    2820.85934790    2772.45135511    2505.24547983    2393.39610841
      2417.75478261    2491.67141369    2564.56849791    2648.47514772    2781.09087756    2801.80201459    2911.70986796    2978.60152990    2975.33286957    3254.39888812    3467.26182197    3567.30625000    3725.06108990    3645.21160528    3612.35290031    3871.93669565    4575.42658316    4136.95658215    3653.17761557    3136.00242887
      2992.22507815    3518.55613486    3764.60597637    3983.67176634    4497.02814454    4866.40681502    4775.33993743    4658.74670368    5109.54621265    4027.11952745    3395.39332870    3348.83588317    4028.38373306    4087.06780250    3468.41014946    3383.06845966       0.00000000       0.00000000       0.00000000       0.00000000
         0.00000000       0.00000000       0.00000000       0.00000000       0.00000000
         0.00000000       0.00000000       0.00000000       0.00000000       0.00000000       0.00000000    2235.00607217    2135.98227320    2140.70313043    2156.35476025    2221.12000000    2322.87091730    2522.76963169    2625.99722029    2588.62972598    2570.91515994    2676.20333681    2472.60570236    2379.45669565    2419.37178596
      2438.26224383    2553.44583333    2743.34114583    2872.30354659    2929.94716719    3018.24965229    2915.76313043    2707.87356721    2824.31706046    3070.73768217    3304.40479500    3255.05945758    3423.04622871    3906.01356050    3922.87769284    3841.09353268    4555.18166030    4081.88861901    3597.64754953    3146.32186305
      3054.93880389    3597.57182609    3908.06668982    3922.91692735    4593.04378040    4844.57841777    4592.31317344    4490.94614315    4578.18643478    3299.03337969    3489.19735928    4662.54362183    4343.67938931    3690.61709521    3819.93152590    4857.56866825       0.00000000       0.00000000       0.00000000       0.00000000
         0.00000000       0.00000000       0.00000000       0.00000000       0.00000000
         0.00000000       0.00000000       0.00000000       0.00000000       0.00000000       0.00000000    2176.16400278    2138.81536857    2141.66469565    2171.94290177    2290.57415769    2426.67118056    2528.55683003    2601.20271210    2489.85401460    2624.40591304    2430.65629346    2349.06282541    2482.11497048    2614.54977454
      2551.23538622    2636.97513043    2855.71890202    2931.71095652    2951.68009726    2894.49583189    2942.92532129    2652.24540090    2771.74069565    2849.19784423    3071.51094891    3175.58678261    3656.31516834    4059.29614181    4501.18999653    4028.17146824    4609.94991304    4235.47359277    3535.84417391    3163.62643478
      3230.15550156    3864.25990271    4204.75988897    3992.56100104    4330.38469565    4612.58408617    4619.32498260    4501.87625999    4221.05761888    3224.47201946    4500.17620534    5604.30806676    5111.59846903    4380.55574852    4758.60800000    5673.99536232       0.00000000       0.00000000       0.00000000       0.00000000
         0.00000000       0.00000000       0.00000000       0.00000000       0.00000000
         0.00000000       0.00000000       0.00000000       0.00000000       0.00000000       0.00000000    2140.79749913    2139.99722415    2144.83009034    2153.53907607    2267.53460870    2376.93532684    2508.07467871    2502.77992345    2447.53678001    2426.20347222    2323.84503127    2433.18287600    2594.01286957    2735.70636300
      2517.80361488    2681.66759388    2650.13250087    2749.95380340    2796.90479500    2599.26494093    2539.41266527    2538.78082668    2599.37395688    2698.79102921    2931.75164759    3318.49114276    3628.86205698    4199.54535975    5073.18678261    4445.34734283    4579.48452174    3961.70326616    3598.53141270    3046.65092046
      3302.20617841    3848.82400000    4341.88796103    4370.62869052    4270.13634783    4560.71988893    4745.03402778    4594.41889545    3588.24730809    3595.55478261    4858.47844228    5234.19499479    5121.73122392    4911.36177593    5650.04031978    5941.16106605       0.00000000       0.00000000       0.00000000       0.00000000
         0.00000000       0.00000000       0.00000000       0.00000000       0.00000000
         0.00000000       0.00000000       0.00000000       0.00000000       0.00000000       0.00000000    2150.98538622    2144.32615491    2164.01426087    2161.34805285    2161.05125087    2205.86935372    2375.76482830    2405.09485754    2284.54175365    2326.36262591    2439.12000000    2547.61236540    2636.09391304    2443.66747741
      2448.68984050    2400.84706291    2451.94245480    2465.80205075    2444.68539130    2509.44162613    2573.95168578    2556.26484891    2626.37664816    2736.47827598    2997.39680334    3354.08281141    3663.98817803    4171.47134422    4981.51877608    5044.06280361    4672.23715278    4038.17078261    3466.92740535    2881.71652174
      3167.83449235    3508.17170664    3745.80368311    4223.30742540    4122.30982980    4413.79102921    4648.41487144    4623.34725122    3740.94199375    3865.20939130    4855.14489229    5181.13007284    5358.46977067    5250.27667709    5798.53388947    5685.78555305       0.00000000       0.00000000       0.00000000       0.00000000
         0.00000000       0.00000000       0.00000000       0.00000000       0.00000000
         0.00000000       0.00000000       0.00000000       0.00000000       0.00000000       0.00000000    2179.29878261    2151.20778318    2150.47377562    2192.54532824    2188.53226926    2170.74443285    2174.48053528    2196.23114355    2360.83200000    2483.95850694    2557.48714385    2568.97255038    2419.38410826    2330.25817676
      2393.38242445    2456.03565217    2463.86017391    2478.11354167    2563.42981237    2669.35235947    2719.48054204    2681.83890049    2813.22299410    2785.37600000    2916.98504348    3269.76848317    3612.87491313    4056.47779320    4793.59054571    5405.43075852    4482.02571230    3796.41585535    3346.77067408    2866.30350938
      3119.72689368    3239.68088796    3610.28104348    3895.11678832    4066.92526938    4319.45878261    4474.28943711    3738.81556096    3311.33530229    4499.98750867    5345.03477051    5557.60097324    5769.18539130    5533.08901252    5924.24461432    5778.52625698       0.00000000       0.00000000       0.00000000       0.00000000
         0.00000000       0.00000000       0.00000000       0.00000000       0.00000000
         0.00000000       0.00000000       0.00000000       0.00000000       0.00000000       0.00000000    2181.76137548    2158.13446838    2149.86106287    2207.60000000    2219.21411192    2208.14082058    2189.46210014    2186.18938606    2218.45710316    2322.97255992    2460.35205146    2355.01286509    2319.51320361    2437.79172462
      2526.07646854    2604.34559334    2592.10319666    2571.00190972    2630.76216968    2852.24626087    2916.23697012    2866.71609875    2984.34548611    3051.26641195    2840.06302083    3084.60507121    3464.29113043    4091.92631213    4952.23713491    5283.42802503    4277.93927828    3545.17332407    3159.83674887    2828.14593468
      2940.43304348    3149.84294649    3558.38073713    3793.18219750    3965.86150642    4125.22577284    3574.61207495    3190.87200000    4233.30806676    5003.62717165    4841.67895652    5231.13064628    5833.59722222    6165.24904481    6402.76058293    6163.34295046       0.00000000       0.00000000       0.00000000       0.00000000
         0.00000000       0.00000000       0.00000000       0.00000000       0.00000000
      2195.27179177    2198.06409478    2208.18380062    2204.72475217    2206.83753071    2188.31163150    2177.32614743    2164.06189152    2150.47636427    2229.80848106    2232.11753472    2227.09718848    2219.21098366    2207.00138985    2202.10173913    2199.17843478    2210.16904100    2281.12473940    2450.86641221    2567.35580264
      2577.71863052    2695.90893292    2741.43115438    2686.45378735    2736.96139130    2881.70222377    2846.38536247    2928.38859924    3102.01633646    2940.85476025    2832.90852174    3054.81167477    3475.56695652    4036.57261987    4919.98647242    4771.51737318    3871.69433831    3270.35142658    2860.02712100    2620.98297429
      2830.02817391    3276.33668865    3614.86567164    3848.59575947    3818.40465439    3804.15448852    2916.56554242    3974.08478110    4415.02433936    4247.53192228    4394.89788121    4795.74904414    5707.72976728    6625.53862213    6746.08961445    5754.78846154    4717.34296808    4739.55079983    4490.05867127    5129.21746362
      5361.13097199    5463.80338437    4814.50561347    4791.79283182    5122.85376261
      2240.66215278    2248.06408475    2242.64394993    2254.09798471    2226.40173913    2194.31965217    2176.86527778    2159.64662960    2151.92889351    2234.76503302    2258.52312239    2252.39645587    2242.47617391    2237.84932221    2229.67095205    2216.54791667    2209.43895248    2232.90226087    2430.70757997    2521.46351633
      2603.12000000    2717.45779785    2728.28248784    2743.19075747    2742.63995838    2664.32417391    2752.48436957    2903.24791377    2824.99669565    2724.95396108    2838.89263377    2988.57202360    3407.25685526    3948.39269565    4674.70093783    4121.35930435    3575.76478775    3095.02361111    2720.71890202    2573.77045770
      2809.75608061    3679.73277662    3796.86796386    3711.99582754    3607.42008339    3144.69447341    2920.83669215    3375.02912621    3468.68428373    3724.90125174    4448.84503127    5336.69228095    6167.88881167    6662.65484880    6281.05804658    5838.83841886    5032.45046924    5038.31816603    4926.57654836    5115.36821975
      4970.93015983    5080.52902329    4696.24705066    4696.14578271    5087.71060870
      2373.74043145    2390.68773880    2367.09843478    2383.06217437    2264.08608122    2199.20500347    2168.48940972    2154.62204451    2158.37200000    2238.30229326    2283.86012526    2280.63185288    2276.68432940    2268.44214732    2259.93509198    2251.05408696    2238.60027807    2223.92333102    2236.73434238    2406.18997224
      2553.71708927    2664.31319444    2652.43030935    2612.74252434    2565.52936067    2709.36973913    2847.97459986    2825.74661811    2705.31410702    2963.01664932    3028.00765484    3113.05389430    3141.80055594    3646.25113043    3730.72123740    3593.84097222    3420.84890587    3017.59472588    2644.08994433    2563.55006954
      2869.83808200    3835.17084203    4185.51336342    3989.03161918    3532.78040306    3351.62144344    2749.75313152    3013.93988881    3368.58553547    4001.06052174    4577.41770833    5102.93849896    5843.15307185    6443.02710215    5741.00382609    5268.17367141    5017.76556522    4961.85629784    4668.11103400    4668.83072645
      4971.97294485    4931.40980188    4482.74112735    4522.47011814    4883.55006954
      2473.06949270    2484.59295872    2525.54466458    2507.44751477    2286.65717263    2196.32254697    2163.89246004    2158.79972184    2213.08759124    2363.03815470    2345.29916609    2331.40351182    2332.24696075    2315.10956522    2299.25799166    2288.06593598    2288.32737061    2254.06557946    2230.99200834    2261.99392361
      2371.64417391    2490.31837161    2584.63546370    2510.76183020    2680.73255814    2711.70340160    2806.27449618    2653.80507297    2886.28477051    2993.88865692    3139.36887808    2857.99478261    3113.89871661    3278.72133426    3203.68693537    3195.00104239    3274.69262865    2768.27042058    2556.75243394    2600.84956522
      2868.84772806    3508.88502952    3999.45031272    4115.16301703    4103.43254520    3479.11157456    2937.41947826    3071.60097324    3412.92438432    3870.02223767    4201.09375000    4723.77982609    5315.58246347    6176.22438347    6150.19610570    5184.94894060    4788.47847222    4669.87460924    4416.15983322    4470.89707928
      4690.10048679    4630.43100452    4419.01495652    4668.35114504    5180.62404448
      2590.24321975    2676.15565217    2657.86349427    2485.54697286    2267.79819382    2192.73740882    2167.49374566    2165.44691187    2243.99530598    2360.86570535    2411.09596662    2449.08347826    2452.32337617    2389.60406532    2351.62743056    2337.53436307    2323.20034783    2282.53056617    2245.87830320    2242.41544885
      2268.02084057    2338.79854116    2376.74947953    2469.67801320    2564.89286957    2577.01146630    2681.85547826    2642.06236970    2794.08220368    2857.03907607    2822.63636364    2797.68450313    3044.67339130    2844.59416261    2879.55059110    2942.29047950    2772.53110879    2598.17019799    2582.67493926    2580.72411397
      2621.90722724    3019.79415855    3360.91060870    4035.79430160    4160.29266597    3387.13046495    2806.03715278    3070.47514772    3708.96871741    4359.24791377    4445.22461752    4928.01737921    5777.15317819    6415.90426639    5959.39728884    5261.92526938    4527.43691345    4395.75382476    4330.53004515    4478.88765217
      4550.54065323    4435.86680541    4525.89506602    4896.20430855    5527.45027816
      2776.35373913    2699.50521558    2571.28263889    2415.52014588    2265.70972222    2191.91000695    2170.50400000    2174.19596942    2264.71339130    2347.53059805    2394.31725095    2444.69260160    2565.63172510    2536.96696801    2428.90052174    2384.98835997    2356.88817391    2323.41507468    2297.76077137    2253.24487669
      2253.55570982    2277.64534075    2335.57840751    2355.84636774    2385.21286957    2442.92983675    2513.46648142    2569.17002431    2630.57256944    2681.67454798    2654.73870744    2708.32794015    2911.56415160    2564.30920139    2622.77449618    2606.45784178    2587.84845325    2659.89391304    2659.29958319    2526.76904348
      2586.66481224    2627.98228552    3203.02466134    3613.17140874    3536.87656467    2999.19993046    2714.80072967    3001.94745999    3747.50885724    4262.31143552    4967.27683223    5397.27783559    6261.81565217    6454.55196385    5887.36322558    5211.17536534    4432.14727336    4295.76997915    4308.60625000    4475.05657758
      4417.38817391    4308.10840862    4520.00069541    4954.06123869    5632.55069444
      2699.53608605    2579.32105629    2486.98055556    2377.97513043    2242.78226087    2188.21949948    2168.65698887    2195.17598056    2264.25390761    2349.21014241    2378.68912817    2414.98538622    2526.25408412    2632.89429764    2513.37691238    2432.03520638    2389.60250174    2380.62560806    2366.51615144    2311.69676409
      2261.88693991    2265.76426583    2282.76433785    2330.98299792    2371.80559416    2386.89062500    2419.81317344    2440.30549756    2474.72629385    2487.94711204    2496.64298124    2498.72345593    2480.55976372    2420.55538194    2789.60970097    2777.02105080    2713.44527450    2796.43165217    2859.32061069    2742.89906185
      2677.92738013    2791.01006944    3033.47130435    2972.44838373    2815.08237748    2686.35908142    2826.76839001    3446.63841612    3854.83530229    4463.12261202    5432.15855355    5918.71369006    5962.96311761    5791.01391304    5669.62179042    5156.35637374    4482.29007634    4297.45460870    4332.28243478    4253.63563737
      4291.84690327    4319.65380605    4596.12773343    4989.58353595    5223.27664006
      2648.62156999    2537.36034783    2425.71011470    2341.50590893    2218.98471161    2183.19857787    2173.24218207    2252.07858136    2309.34682181    2404.95685456    2410.57314107    2459.30378867    2541.81045865    2652.53798127    2559.47168172    2501.86513730    2509.23157163    2464.69965217    2441.66898229    2429.19186653
      2284.00364710    2278.73351839    2277.26286509    2284.05017361    2308.65808696    2367.21739130    2395.56636553    2406.10701876    2422.62426241    2438.39666551    2453.09906152    2441.21250000    2406.13987474    2430.88286409    2770.29833102    3094.30507297    3005.48023578    2943.40514246    3213.83026087    3400.00347222
      3053.50173974    3225.76936436    3253.71686957    3292.77908996    3171.84108258    2744.87143850    3165.97741487    4048.12791102    4226.17321739    4896.07572074    5204.31489214    5085.43819444    5263.19153366    5309.67060459    5259.15526224    5005.51460362    4692.67292971    4479.22168172    4473.72322670    4251.49601110
      4207.16498784    4419.92842252    4688.26615705    5054.04104348    4816.69482099
      2620.69614315    2486.90778048    2400.40667362    2293.15903573    2207.24539130    2184.36531109    2178.13178025    2259.40159944    2300.39614449    2404.70343989    2464.23410907    2503.34536619    2593.77234783    2663.99340049    2583.42223382    2555.07652174    2603.44897605    2561.51685198    2523.97153766    2599.96386379
      2438.10817391    2303.03822099    2294.41321739    2292.99652416    2297.03803404    2308.69423211    2338.83836282    2370.29565217    2384.23939499    2384.77040639    2375.52713987    2382.25121612    2395.21309482    2532.21220021    3097.15574055    3421.66933241    3427.40702120    3282.87134910    3723.32173913    3839.16122307
      3855.26154915    3853.02570337    3891.05412908    3983.61169102    3152.47030219    2962.53043478    3139.97773913    3779.49878430    4293.69920111    4428.64769177    4348.50573116    4418.18267223    4671.50989927    4852.38921739    5346.11470282    5122.64789712    4901.71726294    4994.02879944    4591.23002085    4216.95407098
      4259.40951719    4512.67234783    4841.09662843    4815.28075052    4507.18339701
      2533.59447725    2441.26389854    2397.15617391    2273.46177901    2197.09979138    2181.70434783    2205.43895248    2268.09350017    2324.67372440    2438.94419332    2468.74243478    2489.07522585    2576.77155772    2671.04068150    2627.78903539    2590.07105629    2569.95105866    2554.76939130    2551.74226087    2583.18380820
      2626.18852174    2547.68917043    2386.23028829    2318.66041015    2313.12079139    2312.12713043    2319.72436566    2330.13486270    2341.39186370    2353.23368056    2365.50069469    2373.69155957    2416.86696770    2751.68028512    3096.64767199    3248.39513043    3414.10226087    3503.95975017    3822.69815908    4372.81332408
      4742.59666203    4382.49913043    4131.06221759    3900.84979138    3496.93954135    3829.77500000    4020.98992706    3497.41721624    3844.26365217    3918.17107093    4295.96733843    4965.26981919    4882.53664467    5326.31295589    5670.71994441    5181.24262409    5382.60187761    5105.84404307    4531.99791232    4254.43393602
      4434.58700938    4780.05071205    4904.08813324    4600.75295344    4351.35026087
      2461.47564370    2400.61497048    2336.21758777    2243.61167072    2195.27741152    2181.89228631    2227.37365311    2273.92002782    2346.56678261    2459.12903786    2532.61209593    2558.77723803    2546.22897846    2650.42894371    2630.00086866    2594.72739917    2576.49513213    2534.46089677    2511.59436913    2570.18285913
      2642.30034722    2623.01981230    2692.21098366    2604.05180807    2434.88460202    2371.66620306    2322.80403058    2335.24097849    2347.90462126    2356.01840278    2370.42084203    2391.97739917    2556.64442127    2888.24113352    3189.82152778    3326.78194444    3200.74227162    3427.89232372    3832.44119694    4217.52399166
      4522.04831422    4489.09040334    4326.01838363    4223.44718555    3776.54656011    4065.77283779    3948.99408490    3730.28144545    4289.58052174    4729.71637122    4957.24774462    5731.62612926    5370.37304620    5578.06256517    5794.35513043    5389.45536645    5119.07933194    5005.29927007    4520.59868193    4257.03023983
      4692.41860465    4800.24721836    4753.35421016    4475.01007644    4194.08486957
      2416.62938520    2397.23950746    2336.72148818    2243.10744089    2192.48488008    2192.73582609    2247.70726199    2309.83599722    2383.83408617    2473.37669095    2579.67385257    2644.51269565    2647.56236970    2672.95236439    2663.93346074    2612.43917275    2549.66707190    2513.63011797    2498.95201669    2578.33067037
      2604.02052888    2599.25217391    2675.05401181    2710.06656239    2700.45435613    2609.51666667    2481.73956885    2352.58113273    2346.56382609    2355.18104348    2405.14345259    2530.17651147    2922.95733611    3148.17831074    3220.11613352    3060.87630299    3079.16313043    3310.18346074    3708.35175530    4313.73653111
      4488.15019077    4252.35036496    4329.60166840    4277.05387556    4290.77773913    4087.86622655    3690.12791102    3608.46699097    4205.32570239    4732.95410292    5022.34722222    5469.29227557    5927.10647182    5900.28968392    5806.76511466    5290.15763889    5116.79861111    4628.31502086    4443.33136506    4471.05565217
      4969.56328234    4761.06082725    4579.74982627    4192.48560527    4099.71080987
      2360.51686957    2338.87304348    2306.90048628    2233.38656924    2186.83026727    2199.85984717    2247.61236540    2338.82986111    2428.70939130    2474.07748436    2502.82997218    2555.20626087    2682.83049965    2663.60271116    2641.26570635    2588.52484364    2599.00278261    2547.31729767    2463.39621001    2541.27835769
      2556.18962526    2569.87334955    2606.52410683    2668.96105702    2692.89078261    2759.79360667    2763.00765217    2728.56636553    2675.87708333    2684.49478805    2899.68539716    2978.71373913    3023.83547826    3117.48088951    2995.76390821    2913.88541667    3050.28561501    3419.59242530    3692.33738285    4008.10152990
      4169.77422716    4040.74330435    4047.38156522    4246.37313433    4566.64198818    4579.77403679    3878.76137548    3805.25417246    4241.19596942    4556.07269565    4853.52834783    5343.27525165    5818.81486627    5707.67950052    5441.36904348    5094.97600834    4956.69840167    4396.93356522    4333.47481765    5059.65543592
      5247.01842197    4710.24141519    4136.99478261    3929.33715676    4030.80750521
      2286.09147826    2261.99826208    2236.26040944    2207.13268496    2189.05906880    2194.20055613    2230.85838553    2271.33263889    2320.21346555    2365.95342371    2426.77731530    2519.02952414    2604.68617576    2607.42226087    2642.00817676    2571.13368056    2550.07794015    2536.64908018    2448.26085446    2494.13372699
      2496.77231678    2524.45356522    2587.61356522    2606.80062522    2664.41179541    2678.81945890    2699.76928423    2773.27005905    2827.12421821    2942.61286957    2955.60284920    2897.75269565    3062.36439499    2893.51404787    2837.54675009    2897.22812500    3017.77302746    3168.59151009    3425.56234804    3713.54728790
      3790.49113043    3690.38779050    3680.33287005    3974.60277778    4433.02364395    4795.01878261    4347.72272411    4088.19200000    4610.18680556    5204.71656825    5621.96282140    5703.23255814    5864.19478261    5069.45321739    5056.33703961    5039.07200000    4855.93405068    4106.75026051    4852.19874913    5595.80201459
      5261.54763561    4325.79214460    3966.70027816    4235.25391304    4429.20818876
      2245.23933403    2244.85321739    2208.04324418    2197.55304348    2193.66660870    2198.90566366    2204.56184851    2232.60746528    2285.62808053    2315.21731572    2338.00886032    2380.87682672    2480.56119611    2532.04464906    2549.50225851    2536.52514742    2482.64848906    2475.70215727    2432.02709274    2463.23816980
      2496.60576589    2524.83031989    2582.40184156    2569.68702290    2614.92080584    2656.44904348    2690.45222377    2724.66927627    2792.36401528    2830.80041725    2904.77432245    2803.07526882    2794.52536484    2785.82881474    2888.21592490    2976.37856646    3107.42807505    3218.67616400    3243.81464769    3450.96457103
      3555.71820709    3653.32116788    3465.23652174    3764.04659249    4286.76685198    4626.00278067    4746.24635670    5017.40257034    4357.50625869    5078.35927728    5960.84283727    6495.52450469    5401.69739130    4786.48419590    4561.82644915    4362.55366447    4300.60020841    4009.43234783    4980.93530435    5308.66574010
      4648.27373913    4034.00937500    4526.91773690    5029.88468218    5029.30542043
      2232.19694338    2216.50034771    2209.82904348    2204.06282541    2194.92080584    2206.15197779    2208.44923505    2213.49826087    2228.85046891    2277.05408696    2309.00990615    2341.67621528    2393.26398055    2429.00277585    2450.09248957    2436.77669565    2427.63295099    2411.55493741    2469.98975339    2497.62087530
      2493.82268149    2521.21919472    2535.51686957    2565.65027797    2598.73783032    2635.58240612    2686.35151094    2712.92011115    2765.98889275    2774.40045170    2793.74513213    2731.04169562    2737.81113043    2873.78032673    2929.89854065    2983.28377909    2996.05235784    3005.29381085    3055.14921739    3234.99096595
      3415.06956522    3609.02813477    3371.18519805    3696.47933310    4039.82506074    4296.97601668    4707.19429962    5214.10361613    4605.36995828    5199.49843696    6200.57003823    6548.94305556    5702.68205484    5129.55910987    4693.96457103    4348.22365217    3850.41391304    4244.66828760    5138.11605281    4566.94276795
      3881.92911744    4208.44297636    4884.11084086    5589.92623521    5589.19631689
      2300.76111111    2276.34270833    2238.49270327    2212.79367836    2206.62121739    2205.85436218    2223.49130737    2225.52573018    2226.24609511    2235.92358458    2278.90795415    2321.47446143    2351.66991304    2358.73289337    2366.70111343    2369.77121001    2417.14260930    2458.19972213    2502.37916667    2469.73539638
      2454.24000000    2492.03544128    2505.67095652    2511.12630299    2505.25434028    2531.26050712    2583.01770219    2621.17814892    2691.68984701    2706.38103508    2654.94015310    2688.08955224    2748.29673384    2846.07018763    2878.64474141    2836.80069565    2892.71028849    2942.11196106    3093.26295652    3051.19229434
      3219.68380820    3392.09444444    3306.38659257    3533.13987474    3853.07572074    4061.30991304    4636.32904348    5258.38653713    4805.34676859    5510.93476752    6301.47426982    6787.88308977    6065.46161862    5478.39408696    4874.97879736    4278.26180556    3790.02779708    4281.44691187    4941.03164117    4135.36951983
      4217.84300104    4333.69530435    4982.71145833    5467.99652536    5129.54273801
      2343.12134910    2292.43502432    2249.85217391    2252.74131341    2223.99965217    2217.85307398    2231.06729102    2255.29231839    2254.73940236    2240.81449930    2246.49721739    2270.52466991    2310.38977747    2320.70024314    2340.60010409    2370.73687869    2388.78256339    2415.72703549    2423.35431154    2438.42199444