# File generated by Flopy version 3.3.2 on 05/05/2022 at 16:48:41.
BEGIN options
  TIME_UNITS  days
  START_DATE_TIME  1985-12-01t14:24:00
END options

BEGIN dimensions
  NPER  361
END dimensions

BEGIN perioddata
      30.40000000  1       1.50000000
      31.00000000  1       1.50000000
      28.00000000  1       1.50000000
      31.00000000  1       1.50000000
      30.00000000  1       1.50000000
      31.00000000  1       1.50000000
      30.00000000  1       1.50000000
      31.00000000  1       1.50000000
      31.00000000  1       1.50000000
      30.00000000  1       1.50000000
      31.00000000  1       1.50000000
      30.00000000  1       1.50000000
      31.00000000  1       1.50000000
      31.00000000  1       1.50000000
      28.00000000  1       1.50000000
      31.00000000  1       1.50000000
      30.00000000  1       1.50000000
      31.00000000  1       1.50000000
      30.00000000  1       1.50000000
      31.00000000  1       1.50000000
      31.00000000  1       1.50000000
      30.00000000  1       1.50000000
      31.00000000  1       1.50000000
      30.00000000  1       1.50000000
      31.00000000  1       1.50000000
      31.00000000  1       1.50000000
      29.00000000  1       1.50000000
      31.00000000  1       1.50000000
      30.00000000  1       1.50000000
      31.00000000  1       1.50000000
      30.00000000  1       1.50000000
      31.00000000  1       1.50000000
      31.00000000  1       1.50000000
      30.00000000  1       1.50000000
      31.00000000  1       1.50000000
      30.00000000  1       1.50000000
      31.00000000  1       1.50000000
      31.00000000  1       1.50000000
      28.00000000  1       1.50000000
      31.00000000  1       1.50000000
      30.00000000  1       1.50000000
      31.00000000  1       1.50000000
      30.00000000  1       1.50000000
      31.00000000  1       1.50000000
      31.00000000  1       1.50000000
      30.00000000  1       1.50000000
      31.00000000  1       1.50000000
      30.00000000  1       1.50000000
      31.00000000  1       1.50000000
      31.00000000  1       1.50000000
      28.00000000  1       1.50000000
      31.00000000  1       1.50000000
      30.00000000  1       1.50000000
      31.00000000  1       1.50000000
      30.00000000  1       1.50000000
      31.00000000  1       1.50000000
      31.00000000  1       1.50000000
      30.00000000  1       1.50000000
      31.00000000  1       1.50000000
      30.00000000  1       1.50000000
      31.00000000  1       1.50000000
      31.00000000  1       1.50000000
      28.00000000  1       1.50000000
      31.00000000  1       1.50000000
      30.00000000  1       1.50000000
      31.00000000  1       1.50000000
      30.00000000  1       1.50000000
      31.00000000  1       1.50000000
      31.00000000  1       1.50000000
      30.00000000  1       1.50000000
      31.00000000  1       1.50000000
      30.00000000  1       1.50000000
      31.00000000  1       1.50000000
      31.00000000  1       1.50000000
      29.00000000  1       1.50000000
      31.00000000  1       1.50000000
      30.00000000  1       1.50000000
      31.00000000  1       1.50000000
      30.00000000  1       1.50000000
      31.00000000  1       1.50000000
      31.00000000  1       1.50000000
      30.00000000  1       1.50000000
      31.00000000  1       1.50000000
      30.00000000  1       1.50000000
      31.00000000  1       1.50000000
      31.00000000  1       1.50000000
      28.00000000  1       1.50000000
      31.00000000  1       1.50000000
      30.00000000  1       1.50000000
      31.00000000  1       1.50000000
      30.00000000  1       1.50000000
      31.00000000  1       1.50000000
      31.00000000  1       1.50000000
      30.00000000  1       1.50000000
      31.00000000  1       1.50000000
      30.00000000  1       1.50000000
      31.00000000  1       1.50000000
      31.00000000  1       1.50000000
      28.00000000  1       1.50000000
      31.00000000  1       1.50000000
      30.00000000  1       1.50000000
      31.00000000  1       1.50000000
      30.00000000  1       1.50000000
      31.00000000  1       1.50000000
      31.00000000  1       1.50000000
      30.00000000  1       1.50000000
      31.00000000  1       1.50000000
      30.00000000  1       1.50000000
      31.00000000  1       1.50000000
      31.00000000  1       1.50000000
      28.00000000  1       1.50000000
      31.00000000  1       1.50000000
      30.00000000  1       1.50000000
      31.00000000  1       1.50000000
      30.00000000  1       1.50000000
      31.00000000  1       1.50000000
      31.00000000  1       1.50000000
      30.00000000  1       1.50000000
      31.00000000  1       1.50000000
      30.00000000  1       1.50000000
      31.00000000  1       1.50000000
      31.00000000  1       1.50000000
      29.00000000  1       1.50000000
      31.00000000  1       1.50000000
      30.00000000  1       1.50000000
      31.00000000  1       1.50000000
      30.00000000  1       1.50000000
      31.00000000  1       1.50000000
      31.00000000  1       1.50000000
      30.00000000  1       1.50000000
      31.00000000  1       1.50000000
      30.00000000  1       1.50000000
      31.00000000  1       1.50000000
      31.00000000  1       1.50000000
      28.00000000  1       1.50000000
      31.00000000  1       1.50000000
      30.00000000  1       1.50000000
      31.00000000  1       1.50000000
      30.00000000  1       1.50000000
      31.00000000  1       1.50000000
      31.00000000  1       1.50000000
      30.00000000  1       1.50000000
      31.00000000  1       1.50000000
      30.00000000  1       1.50000000
      31.00000000  1       1.50000000
      31.00000000  1       1.50000000
      28.00000000  1       1.50000000
      31.00000000  1       1.50000000
      30.00000000  1       1.50000000
      31.00000000  1       1.50000000
      30.00000000  1       1.50000000
      31.00000000  1       1.50000000
      31.00000000  1       1.50000000
      30.00000000  1       1.50000000
      31.00000000  1       1.50000000
      30.00000000  1       1.50000000
      31.00000000  1       1.50000000
      31.00000000  1       1.50000000
      28.00000000  1       1.50000000
      31.00000000  1       1.50000000
      30.00000000  1       1.50000000
      31.00000000  1       1.50000000
      30.00000000  1       1.50000000
      31.00000000  1       1.50000000
      31.00000000  1       1.50000000
      30.00000000  1       1.50000000
      31.00000000  1       1.50000000
      30.00000000  1       1.50000000
      31.00000000  1       1.50000000
      31.00000000  1       1.50000000
      29.00000000  1       1.50000000
      31.00000000  1       1.50000000
      30.00000000  1       1.50000000
      31.00000000  1       1.50000000
      30.00000000  1       1.50000000
      31.00000000  1       1.50000000
      31.00000000  1       1.50000000
      30.00000000  1       1.50000000
      31.00000000  1       1.50000000
      30.00000000  1       1.50000000
      31.00000000  1       1.50000000
      31.00000000  1       1.50000000
      28.00000000  1       1.50000000
      31.00000000  1       1.50000000
      30.00000000  1       1.50000000
      31.00000000  1       1.50000000
      30.00000000  1       1.50000000
      31.00000000  1       1.50000000
      31.00000000  1       1.50000000
      30.00000000  1       1.50000000
      31.00000000  1       1.50000000
      30.00000000  1       1.50000000
      31.00000000  1       1.50000000
      31.00000000  1       1.50000000
      28.00000000  1       1.50000000
      31.00000000  1       1.50000000
      30.00000000  1       1.50000000
      31.00000000  1       1.50000000
      30.00000000  1       1.50000000
      31.00000000  1       1.50000000
      31.00000000  1       1.50000000
      30.00000000  1       1.50000000
      31.00000000  1       1.50000000
      30.00000000  1       1.50000000
      31.00000000  1       1.50000000
      31.00000000  1       1.50000000
      28.00000000  1       1.50000000
      31.00000000  1       1.50000000
      30.00000000  1       1.50000000
      31.00000000  1       1.50000000
      30.00000000  1       1.50000000
      31.00000000  1       1.50000000
      31.00000000  1       1.50000000
      30.00000000  1       1.50000000
      31.00000000  1       1.50000000
      30.00000000  1       1.50000000
      31.00000000  1       1.50000000
      31.00000000  1       1.50000000
      29.00000000  1       1.50000000
      31.00000000  1       1.50000000
      30.00000000  1       1.50000000
      31.00000000  1       1.50000000
      30.00000000  1       1.50000000
      31.00000000  1       1.50000000
      31.00000000  1       1.50000000
      30.00000000  1       1.50000000
      31.00000000  1       1.50000000
      30.00000000  1       1.50000000
      31.00000000  1       1.50000000
      31.00000000  1       1.50000000
      28.00000000  1       1.50000000
      31.00000000  1       1.50000000
      30.00000000  1       1.50000000
      31.00000000  1       1.50000000
      30.00000000  1       1.50000000
      31.00000000  1       1.50000000
      31.00000000  1       1.50000000
      30.00000000  1       1.50000000
      31.00000000  1       1.50000000
      30.00000000  1       1.50000000
      31.00000000  1       1.50000000
      31.00000000  1       1.50000000
      28.00000000  1       1.50000000
      31.00000000  1       1.50000000
      30.00000000  1       1.50000000
      31.00000000  1       1.50000000
      30.00000000  1       1.50000000
      31.00000000  1       1.50000000
      31.00000000  1       1.50000000
      30.00000000  1       1.50000000
      31.00000000  1       1.50000000
      30.00000000  1       1.50000000
      31.00000000  1       1.50000000
      31.00000000  1       1.50000000
      28.00000000  1       1.50000000
      31.00000000  1       1.50000000
      30.00000000  1       1.50000000
      31.00000000  1       1.50000000
      30.00000000  1       1.50000000
      31.00000000  1       1.50000000
      31.00000000  1       1.50000000
      30.00000000  1       1.50000000
      31.00000000  1       1.50000000
      30.00000000  1       1.50000000
      31.00000000  1       1.50000000
      31.00000000  1       1.50000000
      29.00000000  1       1.50000000
      31.00000000  1       1.50000000
      30.00000000  1       1.50000000
      31.00000000  1       1.50000000
      30.00000000  1       1.50000000
      31.00000000  1       1.50000000
      31.00000000  1       1.50000000
      30.00000000  1       1.50000000
      31.00000000  1       1.50000000
      30.00000000  1       1.50000000
      31.00000000  1       1.50000000
      31.00000000  1       1.50000000
      28.00000000  1       1.50000000
      31.00000000  1       1.50000000
      30.00000000  1       1.50000000
      31.00000000  1       1.50000000
      30.00000000  1       1.50000000
      31.00000000  1       1.50000000
      31.00000000  1       1.50000000
      30.00000000  1       1.50000000
      31.00000000  1       1.50000000
      30.00000000  1       1.50000000
      31.00000000  1       1.50000000
      31.00000000  1       1.50000000
      28.00000000  1       1.50000000
      31.00000000  1       1.50000000
      30.00000000  1       1.50000000
      31.00000000  1       1.50000000
      30.00000000  1       1.50000000
      31.00000000  1       1.50000000
      31.00000000  1       1.50000000
      30.00000000  1       1.50000000
      31.00000000  1       1.50000000
      30.00000000  1       1.50000000
      31.00000000  1       1.50000000
      31.00000000  1       1.50000000
      28.00000000  1       1.50000000
      31.00000000  1       1.50000000
      30.00000000  1       1.50000000
      31.00000000  1       1.50000000
      30.00000000  1       1.50000000
      31.00000000  1       1.50000000
      31.00000000  1       1.50000000
      30.00000000  1       1.50000000
      31.00000000  1       1.50000000
      30.00000000  1       1.50000000
      31.00000000  1       1.50000000
      31.00000000  1       1.50000000
      29.00000000  1       1.50000000
      31.00000000  1       1.50000000
      30.00000000  1       1.50000000
      31.00000000  1       1.50000000
      30.00000000  1       1.50000000
      31.00000000  1       1.50000000
      31.00000000  1       1.50000000
      30.00000000  1       1.50000000
      31.00000000  1       1.50000000
      30.00000000  1       1.50000000
      31.00000000  1       1.50000000
      31.00000000  1       1.50000000
      28.00000000  1       1.50000000
      31.00000000  1       1.50000000
      30.00000000  1       1.50000000
      31.00000000  1       1.50000000
      30.00000000  1       1.50000000
      31.00000000  1       1.50000000
      31.00000000  1       1.50000000
      30.00000000  1       1.50000000
      31.00000000  1       1.50000000
      30.00000000  1       1.50000000
      31.00000000  1       1.50000000
      31.00000000  1       1.50000000
      28.00000000  1       1.50000000
      31.00000000  1       1.50000000
      30.00000000  1       1.50000000
      31.00000000  1       1.50000000
      30.00000000  1       1.50000000
      31.00000000  1       1.50000000
      31.00000000  1       1.50000000
      30.00000000  1       1.50000000
      31.00000000  1       1.50000000
      30.00000000  1       1.50000000
      31.00000000  1       1.50000000
      31.00000000  1       1.50000000
      28.00000000  1       1.50000000
      31.00000000  1       1.50000000
      30.00000000  1       1.50000000
      31.00000000  1       1.50000000
      30.00000000  1       1.50000000
      31.00000000  1       1.50000000
      31.00000000  1       1.50000000
      30.00000000  1       1.50000000
      31.00000000  1       1.50000000
      30.00000000  1       1.50000000
      31.00000000  1       1.50000000
END perioddata

