ptf #
BEGIN options
  auxiliary  multiplier
  AUXMULTNAME  multiplier
  BOUNDNAMES
  SAVE_FLOWS
  TS6  FILEIN  mf6-tv_hist-pumping_rates-semi.ts
END options

BEGIN dimensions
  MAXBOUND  5620
END dimensions

BEGIN period  1
  1 5 9  pump_sem94  #   94c269l1s#  pump_sem94
  1 5 9  pump_sem97  #   97c269l1s#  pump_sem97
  5 5 9  pump_sem94  #   94c269l5s#  pump_sem94
  5 5 9  pump_sem97  #   97c269l5s#  pump_sem97
  1 5 10  pump_sem94  #   94c270l1s#  pump_sem94
  1 5 10  pump_sem97  #   97c270l1s#  pump_sem97
  5 5 10  pump_sem94  #   94c270l5s#  pump_sem94
  5 5 10  pump_sem97  #   97c270l5s#  pump_sem97
  1 5 11  pump_sem94  #   94c271l1s#  pump_sem94
  5 5 11  pump_sem94  #   94c271l5s#  pump_sem94
  1 5 12  pump_sem94  #   94c272l1s#  pump_sem94
  5 5 12  pump_sem94  #   94c272l5s#  pump_sem94
  1 5 13  pump_sem94  #   94c273l1s#  pump_sem94
  5 5 13  pump_sem94  #   94c273l5s#  pump_sem94
  1 6 9  pump_sem97  #   97c334l1s#  pump_sem97
  5 6 9  pump_sem97  #   97c334l5s#  pump_sem97
  1 6 10  pump_sem94  #   94c335l1s#  pump_sem94
  1 6 10  pump_sem97  #   97c335l1s#  pump_sem97
  1 6 10  pump_sem102  #  102c335l1s#  pump_sem102
  5 6 10  pump_sem94  #   94c335l5s#  pump_sem94
  5 6 10  pump_sem97  #   97c335l5s#  pump_sem97
  5 6 10  pump_sem102  #  102c335l5s#  pump_sem102
  1 6 11  pump_sem94  #   94c336l1s#  pump_sem94
  1 6 11  pump_sem97  #   97c336l1s#  pump_sem97
  1 6 11  pump_sem102  #  102c336l1s#  pump_sem102
  5 6 11  pump_sem94  #   94c336l5s#  pump_sem94
  5 6 11  pump_sem97  #   97c336l5s#  pump_sem97
  5 6 11  pump_sem102  #  102c336l5s#  pump_sem102
  1 6 12  pump_sem94  #   94c337l1s#  pump_sem94
  1 6 12  pump_sem97  #   97c337l1s#  pump_sem97
  5 6 12  pump_sem94  #   94c337l5s#  pump_sem94
  5 6 12  pump_sem97  #   97c337l5s#  pump_sem97
  1 6 13  pump_sem94  #   94c338l1s#  pump_sem94
  1 6 13  pump_sem97  #   97c338l1s#  pump_sem97
  5 6 13  pump_sem94  #   94c338l5s#  pump_sem94
  5 6 13  pump_sem97  #   97c338l5s#  pump_sem97
  1 6 14  pump_sem94  #   94c339l1s#  pump_sem94
  5 6 14  pump_sem94  #   94c339l5s#  pump_sem94
  1 7 9  pump_sem97  #   97c399l1s#  pump_sem97
  5 7 9  pump_sem97  #   97c399l5s#  pump_sem97
  1 7 10  pump_sem94  #   94c400l1s#  pump_sem94
  1 7 10  pump_sem97  #   97c400l1s#  pump_sem97
  1 7 10  pump_sem102  #  102c400l1s#  pump_sem102
  5 7 10  pump_sem94  #   94c400l5s#  pump_sem94
  5 7 10  pump_sem97  #   97c400l5s#  pump_sem97
  5 7 10  pump_sem102  #  102c400l5s#  pump_sem102
  1 7 11  pump_sem94  #   94c401l1s#  pump_sem94
  1 7 11  pump_sem97  #   97c401l1s#  pump_sem97
  1 7 11  pump_sem102  #  102c401l1s#  pump_sem102
  5 7 11  pump_sem94  #   94c401l5s#  pump_sem94
  5 7 11  pump_sem97  #   97c401l5s#  pump_sem97
  5 7 11  pump_sem102  #  102c401l5s#  pump_sem102
  1 7 12  pump_sem94  #   94c402l1s#  pump_sem94
  1 7 12  pump_sem97  #   97c402l1s#  pump_sem97
  5 7 12  pump_sem94  #   94c402l5s#  pump_sem94
  5 7 12  pump_sem97  #   97c402l5s#  pump_sem97
  1 7 13  pump_sem94  #   94c403l1s#  pump_sem94
  1 7 13  pump_sem97  #   97c403l1s#  pump_sem97
  5 7 13  pump_sem94  #   94c403l5s#  pump_sem94
  5 7 13  pump_sem97  #   97c403l5s#  pump_sem97
  1 7 14  pump_sem94  #   94c404l1s#  pump_sem94
  1 7 14  pump_sem97  #   97c404l1s#  pump_sem97
  5 7 14  pump_sem94  #   94c404l5s#  pump_sem94
  5 7 14  pump_sem97  #   97c404l5s#  pump_sem97
  1 7 15  pump_sem94  #   94c405l1s#  pump_sem94
  1 7 15  pump_sem95  #   95c405l1s#  pump_sem95
  1 7 15  pump_sem97  #   97c405l1s#  pump_sem97
  5 7 15  pump_sem94  #   94c405l5s#  pump_sem94
  5 7 15  pump_sem95  #   95c405l5s#  pump_sem95
  5 7 15  pump_sem97  #   97c405l5s#  pump_sem97
  1 7 16  pump_sem94  #   94c406l1s#  pump_sem94
  1 7 16  pump_sem95  #   95c406l1s#  pump_sem95
  1 8 9  pump_sem97  #   97c464l1s#  pump_sem97
  5 8 9  pump_sem97  #   97c464l5s#  pump_sem97
  1 8 10  pump_sem94  #   94c465l1s#  pump_sem94
  1 8 10  pump_sem97  #   97c465l1s#  pump_sem97
  1 8 10  pump_sem102  #  102c465l1s#  pump_sem102
  5 8 10  pump_sem94  #   94c465l5s#  pump_sem94
  5 8 10  pump_sem97  #   97c465l5s#  pump_sem97
  5 8 10  pump_sem102  #  102c465l5s#  pump_sem102
  1 8 11  pump_sem94  #   94c466l1s#  pump_sem94
  1 8 11  pump_sem97  #   97c466l1s#  pump_sem97
  1 8 11  pump_sem102  #  102c466l1s#  pump_sem102
  5 8 11  pump_sem94  #   94c466l5s#  pump_sem94
  5 8 11  pump_sem97  #   97c466l5s#  pump_sem97
  5 8 11  pump_sem102  #  102c466l5s#  pump_sem102
  1 8 12  pump_sem97  #   97c467l1s#  pump_sem97
  5 8 12  pump_sem97  #   97c467l5s#  pump_sem97
  1 8 13  pump_sem97  #   97c468l1s#  pump_sem97
  5 8 13  pump_sem97  #   97c468l5s#  pump_sem97
  1 8 14  pump_sem97  #   97c469l1s#  pump_sem97
  5 8 14  pump_sem97  #   97c469l5s#  pump_sem97
  1 8 15  pump_sem97  #   97c470l1s#  pump_sem97
  5 8 15  pump_sem97  #   97c470l5s#  pump_sem97
  1 8 16  pump_sem94  #   94c471l1s#  pump_sem94
  1 8 16  pump_sem97  #   97c471l1s#  pump_sem97
  1 8 17  pump_sem94  #   94c472l1s#  pump_sem94
  1 9 9  pump_sem97  #   97c529l1s#  pump_sem97
  5 9 9  pump_sem97  #   97c529l5s#  pump_sem97
  1 9 10  pump_sem97  #   97c530l1s#  pump_sem97
  4 9 10  pump_sem97  #   97c530l4s#  pump_sem97
  5 9 10  pump_sem97  #   97c530l5s#  pump_sem97
  1 9 11  pump_sem97  #   97c531l1s#  pump_sem97
  4 9 11  pump_sem97  #   97c531l4s#  pump_sem97
  5 9 11  pump_sem97  #   97c531l5s#  pump_sem97
  1 9 12  pump_sem97  #   97c532l1s#  pump_sem97
  4 9 12  pump_sem97  #   97c532l4s#  pump_sem97
  5 9 12  pump_sem97  #   97c532l5s#  pump_sem97
  1 9 13  pump_sem97  #   97c533l1s#  pump_sem97
  4 9 13  pump_sem97  #   97c533l4s#  pump_sem97
  1 9 14  pump_sem97  #   97c534l1s#  pump_sem97
  1 9 15  pump_sem97  #   97c535l1s#  pump_sem97
  1 9 16  pump_sem94  #   94c536l1s#  pump_sem94
  1 9 16  pump_sem97  #   97c536l1s#  pump_sem97
  1 9 17  pump_sem94  #   94c537l1s#  pump_sem94
  1 9 17  pump_sem97  #   97c537l1s#  pump_sem97
  1 9 18  pump_sem94  #   94c538l1s#  pump_sem94
  1 9 18  pump_sem95  #   95c538l1s#  pump_sem95
  4 9 18  pump_sem94  #   94c538l4s#  pump_sem94
  4 9 18  pump_sem95  #   95c538l4s#  pump_sem95
  1 10 8  pump_sem97  #   97c593l1s#  pump_sem97
  5 10 8  pump_sem97  #   97c593l5s#  pump_sem97
  1 10 9  pump_sem97  #   97c594l1s#  pump_sem97
  5 10 9  pump_sem97  #   97c594l5s#  pump_sem97
  1 10 10  pump_sem97  #   97c595l1s#  pump_sem97
  1 10 10  pump_sem102  #  102c595l1s#  pump_sem102
  4 10 10  pump_sem97  #   97c595l4s#  pump_sem97
  4 10 10  pump_sem102  #  102c595l4s#  pump_sem102
  5 10 10  pump_sem97  #   97c595l5s#  pump_sem97
  5 10 10  pump_sem102  #  102c595l5s#  pump_sem102
  1 10 11  pump_sem97  #   97c596l1s#  pump_sem97
  1 10 11  pump_sem102  #  102c596l1s#  pump_sem102
  4 10 11  pump_sem97  #   97c596l4s#  pump_sem97
  4 10 11  pump_sem102  #  102c596l4s#  pump_sem102
  5 10 11  pump_sem97  #   97c596l5s#  pump_sem97
  5 10 11  pump_sem102  #  102c596l5s#  pump_sem102
  1 10 12  pump_sem97  #   97c597l1s#  pump_sem97
  1 10 12  pump_sem102  #  102c597l1s#  pump_sem102
  4 10 12  pump_sem97  #   97c597l4s#  pump_sem97
  4 10 12  pump_sem102  #  102c597l4s#  pump_sem102
  1 10 13  pump_sem97  #   97c598l1s#  pump_sem97
  4 10 13  pump_sem97  #   97c598l4s#  pump_sem97
  1 10 14  pump_sem97  #   97c599l1s#  pump_sem97
  4 10 14  pump_sem97  #   97c599l4s#  pump_sem97
  1 10 15  pump_sem97  #   97c600l1s#  pump_sem97
  4 10 15  pump_sem97  #   97c600l4s#  pump_sem97
  1 10 16  pump_sem97  #   97c601l1s#  pump_sem97
  4 10 16  pump_sem97  #   97c601l4s#  pump_sem97
  1 10 17  pump_sem94  #   94c602l1s#  pump_sem94
  1 10 17  pump_sem97  #   97c602l1s#  pump_sem97
  4 10 17  pump_sem94  #   94c602l4s#  pump_sem94
  4 10 17  pump_sem97  #   97c602l4s#  pump_sem97
  1 10 18  pump_sem94  #   94c603l1s#  pump_sem94
  1 10 18  pump_sem97  #   97c603l1s#  pump_sem97
  4 10 18  pump_sem94  #   94c603l4s#  pump_sem94
  4 10 18  pump_sem97  #   97c603l4s#  pump_sem97
  1 10 19  pump_sem94  #   94c604l1s#  pump_sem94
  1 10 19  pump_sem95  #   95c604l1s#  pump_sem95
  4 10 19  pump_sem94  #   94c604l4s#  pump_sem94
  4 10 19  pump_sem95  #   95c604l4s#  pump_sem95
  1 11 8  pump_sem97  #   97c658l1s#  pump_sem97
  5 11 8  pump_sem97  #   97c658l5s#  pump_sem97
  1 11 9  pump_sem97  #   97c659l1s#  pump_sem97
  1 11 9  pump_sem102  #  102c659l1s#  pump_sem102
  4 11 9  pump_sem97  #   97c659l4s#  pump_sem97
  4 11 9  pump_sem102  #  102c659l4s#  pump_sem102
  5 11 9  pump_sem97  #   97c659l5s#  pump_sem97
  5 11 9  pump_sem102  #  102c659l5s#  pump_sem102
  1 11 10  pump_sem97  #   97c660l1s#  pump_sem97
  1 11 10  pump_sem102  #  102c660l1s#  pump_sem102
  4 11 10  pump_sem97  #   97c660l4s#  pump_sem97
  4 11 10  pump_sem102  #  102c660l4s#  pump_sem102
  5 11 10  pump_sem97  #   97c660l5s#  pump_sem97
  5 11 10  pump_sem102  #  102c660l5s#  pump_sem102
  1 11 11  pump_sem97  #   97c661l1s#  pump_sem97
  1 11 11  pump_sem102  #  102c661l1s#  pump_sem102
  4 11 11  pump_sem97  #   97c661l4s#  pump_sem97
  4 11 11  pump_sem102  #  102c661l4s#  pump_sem102
  5 11 11  pump_sem97  #   97c661l5s#  pump_sem97
  5 11 11  pump_sem102  #  102c661l5s#  pump_sem102
  1 11 12  pump_sem97  #   97c662l1s#  pump_sem97
  1 11 12  pump_sem102  #  102c662l1s#  pump_sem102
  4 11 12  pump_sem97  #   97c662l4s#  pump_sem97
  4 11 12  pump_sem102  #  102c662l4s#  pump_sem102
  1 11 13  pump_sem97  #   97c663l1s#  pump_sem97
  1 11 13  pump_sem102  #  102c663l1s#  pump_sem102
  4 11 13  pump_sem97  #   97c663l4s#  pump_sem97
  4 11 13  pump_sem102  #  102c663l4s#  pump_sem102
  1 11 14  pump_sem97  #   97c664l1s#  pump_sem97
  1 11 14  pump_sem102  #  102c664l1s#  pump_sem102
  4 11 14  pump_sem97  #   97c664l4s#  pump_sem97
  4 11 14  pump_sem102  #  102c664l4s#  pump_sem102
  1 11 15  pump_sem97  #   97c665l1s#  pump_sem97
  1 11 15  pump_sem102  #  102c665l1s#  pump_sem102
  4 11 15  pump_sem97  #   97c665l4s#  pump_sem97
  4 11 15  pump_sem102  #  102c665l4s#  pump_sem102
  1 11 16  pump_sem97  #   97c666l1s#  pump_sem97
  1 11 16  pump_sem102  #  102c666l1s#  pump_sem102
  4 11 16  pump_sem97  #   97c666l4s#  pump_sem97
  4 11 16  pump_sem102  #  102c666l4s#  pump_sem102
  1 11 17  pump_sem97  #   97c667l1s#  pump_sem97
  1 11 17  pump_sem102  #  102c667l1s#  pump_sem102
  4 11 17  pump_sem97  #   97c667l4s#  pump_sem97
  4 11 17  pump_sem102  #  102c667l4s#  pump_sem102
  1 11 18  pump_sem94  #   94c668l1s#  pump_sem94
  1 11 18  pump_sem97  #   97c668l1s#  pump_sem97
  4 11 18  pump_sem94  #   94c668l4s#  pump_sem94
  4 11 18  pump_sem97  #   97c668l4s#  pump_sem97
  1 11 19  pump_sem94  #   94c669l1s#  pump_sem94
  1 11 19  pump_sem95  #   95c669l1s#  pump_sem95
  1 11 19  pump_sem97  #   97c669l1s#  pump_sem97
  4 11 19  pump_sem94  #   94c669l4s#  pump_sem94
  4 11 19  pump_sem95  #   95c669l4s#  pump_sem95
  4 11 19  pump_sem97  #   97c669l4s#  pump_sem97
  5 11 19  pump_sem94  #   94c669l5s#  pump_sem94
  5 11 19  pump_sem95  #   95c669l5s#  pump_sem95
  5 11 19  pump_sem97  #   97c669l5s#  pump_sem97
  1 11 20  pump_sem95  #   95c670l1s#  pump_sem95
  4 11 20  pump_sem95  #   95c670l4s#  pump_sem95
  5 11 20  pump_sem95  #   95c670l5s#  pump_sem95
  1 11 21  pump_sem95  #   95c671l1s#  pump_sem95
  4 11 21  pump_sem95  #   95c671l4s#  pump_sem95
  5 11 21  pump_sem95  #   95c671l5s#  pump_sem95
  1 11 22  pump_sem95  #   95c672l1s#  pump_sem95
  4 11 22  pump_sem95  #   95c672l4s#  pump_sem95
  5 11 22  pump_sem95  #   95c672l5s#  pump_sem95
  1 12 8  pump_sem97  #   97c723l1s#  pump_sem97
  1 12 8  pump_sem102  #  102c723l1s#  pump_sem102
  5 12 8  pump_sem97  #   97c723l5s#  pump_sem97
  5 12 8  pump_sem102  #  102c723l5s#  pump_sem102
  1 12 9  pump_sem97  #   97c724l1s#  pump_sem97
  1 12 9  pump_sem102  #  102c724l1s#  pump_sem102
  4 12 9  pump_sem97  #   97c724l4s#  pump_sem97
  4 12 9  pump_sem102  #  102c724l4s#  pump_sem102
  5 12 9  pump_sem97  #   97c724l5s#  pump_sem97
  5 12 9  pump_sem102  #  102c724l5s#  pump_sem102
  1 12 10  pump_sem102  #  102c725l1s#  pump_sem102
  4 12 10  pump_sem102  #  102c725l4s#  pump_sem102
  1 12 11  pump_sem102  #  102c726l1s#  pump_sem102
  4 12 11  pump_sem102  #  102c726l4s#  pump_sem102
  1 12 12  pump_sem102  #  102c727l1s#  pump_sem102
  4 12 12  pump_sem102  #  102c727l4s#  pump_sem102
  1 12 13  pump_sem102  #  102c728l1s#  pump_sem102
  4 12 13  pump_sem102  #  102c728l4s#  pump_sem102
  1 12 14  pump_sem102  #  102c729l1s#  pump_sem102
  4 12 14  pump_sem102  #  102c729l4s#  pump_sem102
  1 12 15  pump_sem97  #   97c730l1s#  pump_sem97
  1 12 15  pump_sem102  #  102c730l1s#  pump_sem102
  4 12 15  pump_sem97  #   97c730l4s#  pump_sem97
  4 12 15  pump_sem102  #  102c730l4s#  pump_sem102
  1 12 16  pump_sem97  #   97c731l1s#  pump_sem97
  1 12 16  pump_sem102  #  102c731l1s#  pump_sem102
  4 12 16  pump_sem97  #   97c731l4s#  pump_sem97
  4 12 16  pump_sem102  #  102c731l4s#  pump_sem102
  1 12 17  pump_sem97  #   97c732l1s#  pump_sem97
  1 12 17  pump_sem102  #  102c732l1s#  pump_sem102
  4 12 17  pump_sem97  #   97c732l4s#  pump_sem97
  4 12 17  pump_sem102  #  102c732l4s#  pump_sem102
  1 12 18  pump_sem97  #   97c733l1s#  pump_sem97
  4 12 18  pump_sem97  #   97c733l4s#  pump_sem97
  1 12 19  pump_sem95  #   95c734l1s#  pump_sem95
  1 12 19  pump_sem97  #   97c734l1s#  pump_sem97
  4 12 19  pump_sem95  #   95c734l4s#  pump_sem95
  4 12 19  pump_sem97  #   97c734l4s#  pump_sem97
  5 12 19  pump_sem95  #   95c734l5s#  pump_sem95
  5 12 19  pump_sem97  #   97c734l5s#  pump_sem97
  1 12 20  pump_sem95  #   95c735l1s#  pump_sem95
  4 12 20  pump_sem95  #   95c735l4s#  pump_sem95
  5 12 20  pump_sem95  #   95c735l5s#  pump_sem95
  1 12 21  pump_sem95  #   95c736l1s#  pump_sem95
  4 12 21  pump_sem95  #   95c736l4s#  pump_sem95
  5 12 21  pump_sem95  #   95c736l5s#  pump_sem95
  1 12 22  pump_sem95  #   95c737l1s#  pump_sem95
  4 12 22  pump_sem95  #   95c737l4s#  pump_sem95
  5 12 22  pump_sem95  #   95c737l5s#  pump_sem95
  1 12 23  pump_sem95  #   95c738l1s#  pump_sem95
  4 12 23  pump_sem95  #   95c738l4s#  pump_sem95
  5 12 23  pump_sem95  #   95c738l5s#  pump_sem95
  1 12 24  pump_sem95  #   95c739l1s#  pump_sem95
  4 12 24  pump_sem95  #   95c739l4s#  pump_sem95
  1 13 8  pump_sem97  #   97c788l1s#  pump_sem97
  1 13 8  pump_sem102  #  102c788l1s#  pump_sem102
  5 13 8  pump_sem97  #   97c788l5s#  pump_sem97
  5 13 8  pump_sem102  #  102c788l5s#  pump_sem102
  1 13 9  pump_sem97  #   97c789l1s#  pump_sem97
  1 13 9  pump_sem102  #  102c789l1s#  pump_sem102
  4 13 9  pump_sem97  #   97c789l4s#  pump_sem97
  4 13 9  pump_sem102  #  102c789l4s#  pump_sem102
  5 13 9  pump_sem97  #   97c789l5s#  pump_sem97
  5 13 9  pump_sem102  #  102c789l5s#  pump_sem102
  1 13 10  pump_sem102  #  102c790l1s#  pump_sem102
  4 13 10  pump_sem102  #  102c790l4s#  pump_sem102
  5 13 10  pump_sem102  #  102c790l5s#  pump_sem102
  1 13 11  pump_sem102  #  102c791l1s#  pump_sem102
  4 13 11  pump_sem102  #  102c791l4s#  pump_sem102
  1 13 12  pump_sem102  #  102c792l1s#  pump_sem102
  4 13 12  pump_sem102  #  102c792l4s#  pump_sem102
  1 13 14  pump_sem102  #  102c794l1s#  pump_sem102
  4 13 14  pump_sem102  #  102c794l4s#  pump_sem102
  1 13 15  pump_sem102  #  102c795l1s#  pump_sem102
  4 13 15  pump_sem102  #  102c795l4s#  pump_sem102
  1 13 16  pump_sem97  #   97c796l1s#  pump_sem97
  1 13 16  pump_sem102  #  102c796l1s#  pump_sem102
  4 13 16  pump_sem97  #   97c796l4s#  pump_sem97
  4 13 16  pump_sem102  #  102c796l4s#  pump_sem102
  1 13 17  pump_sem97  #   97c797l1s#  pump_sem97
  1 13 17  pump_sem102  #  102c797l1s#  pump_sem102
  4 13 17  pump_sem97  #   97c797l4s#  pump_sem97
  4 13 17  pump_sem102  #  102c797l4s#  pump_sem102
  1 13 18  pump_sem97  #   97c798l1s#  pump_sem97
  1 13 18  pump_sem102  #  102c798l1s#  pump_sem102
  4 13 18  pump_sem97  #   97c798l4s#  pump_sem97
  4 13 18  pump_sem102  #  102c798l4s#  pump_sem102
  1 13 19  pump_sem95  #   95c799l1s#  pump_sem95
  1 13 19  pump_sem97  #   97c799l1s#  pump_sem97
  1 13 19  pump_sem102  #  102c799l1s#  pump_sem102
  4 13 19  pump_sem95  #   95c799l4s#  pump_sem95
  4 13 19  pump_sem97  #   97c799l4s#  pump_sem97
  4 13 19  pump_sem102  #  102c799l4s#  pump_sem102
  5 13 19  pump_sem95  #   95c799l5s#  pump_sem95
  5 13 19  pump_sem97  #   97c799l5s#  pump_sem97
  5 13 19  pump_sem102  #  102c799l5s#  pump_sem102
  1 13 20  pump_sem95  #   95c800l1s#  pump_sem95
  1 13 20  pump_sem97  #   97c800l1s#  pump_sem97
  4 13 20  pump_sem95  #   95c800l4s#  pump_sem95
  4 13 20  pump_sem97  #   97c800l4s#  pump_sem97
  5 13 20  pump_sem95  #   95c800l5s#  pump_sem95
  5 13 20  pump_sem97  #   97c800l5s#  pump_sem97
  1 13 21  pump_sem95  #   95c801l1s#  pump_sem95
  1 13 21  pump_sem97  #   97c801l1s#  pump_sem97
  4 13 21  pump_sem95  #   95c801l4s#  pump_sem95
  4 13 21  pump_sem97  #   97c801l4s#  pump_sem97
  5 13 21  pump_sem95  #   95c801l5s#  pump_sem95
  5 13 21  pump_sem97  #   97c801l5s#  pump_sem97
  1 13 22  pump_sem95  #   95c802l1s#  pump_sem95
  4 13 22  pump_sem95  #   95c802l4s#  pump_sem95
  5 13 22  pump_sem95  #   95c802l5s#  pump_sem95
  1 13 23  pump_sem95  #   95c803l1s#  pump_sem95
  4 13 23  pump_sem95  #   95c803l4s#  pump_sem95
  5 13 23  pump_sem95  #   95c803l5s#  pump_sem95
  1 13 24  pump_sem95  #   95c804l1s#  pump_sem95
  4 13 24  pump_sem95  #   95c804l4s#  pump_sem95
  1 13 25  pump_sem95  #   95c805l1s#  pump_sem95
  4 13 25  pump_sem95  #   95c805l4s#  pump_sem95
  1 13 26  pump_sem95  #   95c806l1s#  pump_sem95
  4 13 26  pump_sem95  #   95c806l4s#  pump_sem95
  1 13 27  pump_sem95  #   95c807l1s#  pump_sem95
  4 13 27  pump_sem95  #   95c807l4s#  pump_sem95
  1 13 28  pump_sem95  #   95c808l1s#  pump_sem95
  4 13 28  pump_sem95  #   95c808l4s#  pump_sem95
  1 13 34  pump_sem95  #   95c814l1s#  pump_sem95
  1 13 34  pump_sem102  #  102c814l1s#  pump_sem102
  4 13 34  pump_sem95  #   95c814l4s#  pump_sem95
  4 13 34  pump_sem102  #  102c814l4s#  pump_sem102
  1 14 8  pump_sem97  #   97c853l1s#  pump_sem97
  1 14 8  pump_sem102  #  102c853l1s#  pump_sem102
  4 14 8  pump_sem97  #   97c853l4s#  pump_sem97
  4 14 8  pump_sem102  #  102c853l4s#  pump_sem102
  5 14 8  pump_sem97  #   97c853l5s#  pump_sem97
  5 14 8  pump_sem102  #  102c853l5s#  pump_sem102
  4 14 9  pump_sem102  #  102c854l4s#  pump_sem102
  5 14 9  pump_sem102  #  102c854l5s#  pump_sem102
  4 14 10  pump_sem102  #  102c855l4s#  pump_sem102
  5 14 10  pump_sem102  #  102c855l5s#  pump_sem102
  4 14 11  pump_sem102  #  102c856l4s#  pump_sem102
  4 14 12  pump_sem81  #   81c857l4s#  pump_sem81
  4 14 12  pump_sem102  #  102c857l4s#  pump_sem102
  1 14 15  pump_sem81  #   81c860l1s#  pump_sem81
  1 14 15  pump_sem102  #  102c860l1s#  pump_sem102
  4 14 15  pump_sem81  #   81c860l4s#  pump_sem81
  4 14 15  pump_sem102  #  102c860l4s#  pump_sem102
  1 14 16  pump_sem81  #   81c861l1s#  pump_sem81
  1 14 16  pump_sem102  #  102c861l1s#  pump_sem102
  4 14 16  pump_sem81  #   81c861l4s#  pump_sem81
  4 14 16  pump_sem102  #  102c861l4s#  pump_sem102
  1 14 17  pump_sem97  #   97c862l1s#  pump_sem97
  1 14 17  pump_sem102  #  102c862l1s#  pump_sem102
  4 14 17  pump_sem97  #   97c862l4s#  pump_sem97
  4 14 17  pump_sem102  #  102c862l4s#  pump_sem102
  1 14 18  pump_sem102  #  102c863l1s#  pump_sem102
  4 14 18  pump_sem102  #  102c863l4s#  pump_sem102
  5 14 18  pump_sem102  #  102c863l5s#  pump_sem102
  1 14 19  pump_sem97  #   97c864l1s#  pump_sem97
  1 14 19  pump_sem102  #  102c864l1s#  pump_sem102
  4 14 19  pump_sem97  #   97c864l4s#  pump_sem97
  4 14 19  pump_sem102  #  102c864l4s#  pump_sem102
  5 14 19  pump_sem97  #   97c864l5s#  pump_sem97
  5 14 19  pump_sem102  #  102c864l5s#  pump_sem102
  1 14 20  pump_sem97  #   97c865l1s#  pump_sem97
  1 14 20  pump_sem102  #  102c865l1s#  pump_sem102
  4 14 20  pump_sem97  #   97c865l4s#  pump_sem97
  4 14 20  pump_sem102  #  102c865l4s#  pump_sem102
  5 14 20  pump_sem97  #   97c865l5s#  pump_sem97
  5 14 20  pump_sem102  #  102c865l5s#  pump_sem102
  1 14 21  pump_sem95  #   95c866l1s#  pump_sem95
  1 14 21  pump_sem96  #   96c866l1s#  pump_sem96
  1 14 21  pump_sem97  #   97c866l1s#  pump_sem97
  4 14 21  pump_sem95  #   95c866l4s#  pump_sem95
  4 14 21  pump_sem96  #   96c866l4s#  pump_sem96
  4 14 21  pump_sem97  #   97c866l4s#  pump_sem97
  5 14 21  pump_sem95  #   95c866l5s#  pump_sem95
  5 14 21  pump_sem96  #   96c866l5s#  pump_sem96
  5 14 21  pump_sem97  #   97c866l5s#  pump_sem97
  1 14 22  pump_sem95  #   95c867l1s#  pump_sem95
  1 14 22  pump_sem96  #   96c867l1s#  pump_sem96
  1 14 22  pump_sem97  #   97c867l1s#  pump_sem97
  4 14 22  pump_sem95  #   95c867l4s#  pump_sem95
  4 14 22  pump_sem96  #   96c867l4s#  pump_sem96
  4 14 22  pump_sem97  #   97c867l4s#  pump_sem97
  1 14 23  pump_sem95  #   95c868l1s#  pump_sem95
  4 14 23  pump_sem95  #   95c868l4s#  pump_sem95
  1 14 24  pump_sem95  #   95c869l1s#  pump_sem95
  4 14 24  pump_sem95  #   95c869l4s#  pump_sem95
  1 14 25  pump_sem95  #   95c870l1s#  pump_sem95
  4 14 25  pump_sem95  #   95c870l4s#  pump_sem95
  1 14 26  pump_sem95  #   95c871l1s#  pump_sem95
  4 14 26  pump_sem95  #   95c871l4s#  pump_sem95
  1 14 27  pump_sem95  #   95c872l1s#  pump_sem95
  4 14 27  pump_sem95  #   95c872l4s#  pump_sem95
  1 14 28  pump_sem95  #   95c873l1s#  pump_sem95
  4 14 28  pump_sem95  #   95c873l4s#  pump_sem95
  1 14 29  pump_sem95  #   95c874l1s#  pump_sem95
  4 14 29  pump_sem95  #   95c874l4s#  pump_sem95
  1 14 30  pump_sem95  #   95c875l1s#  pump_sem95
  4 14 30  pump_sem95  #   95c875l4s#  pump_sem95
  1 14 31  pump_sem95  #   95c876l1s#  pump_sem95
  4 14 31  pump_sem95  #   95c876l4s#  pump_sem95
  1 14 32  pump_sem95  #   95c877l1s#  pump_sem95
  4 14 32  pump_sem95  #   95c877l4s#  pump_sem95
  1 14 33  pump_sem95  #   95c878l1s#  pump_sem95
  1 14 33  pump_sem96  #   96c878l1s#  pump_sem96
  4 14 33  pump_sem95  #   95c878l4s#  pump_sem95
  4 14 33  pump_sem96  #   96c878l4s#  pump_sem96
  1 14 34  pump_sem95  #   95c879l1s#  pump_sem95
  1 14 34  pump_sem96  #   96c879l1s#  pump_sem96
  1 14 34  pump_sem102  #  102c879l1s#  pump_sem102
  4 14 34  pump_sem95  #   95c879l4s#  pump_sem95
  4 14 34  pump_sem96  #   96c879l4s#  pump_sem96
  4 14 34  pump_sem102  #  102c879l4s#  pump_sem102
  1 14 35  pump_sem93  #   93c880l1s#  pump_sem93
  1 14 35  pump_sem95  #   95c880l1s#  pump_sem95
  1 14 35  pump_sem96  #   96c880l1s#  pump_sem96
  1 14 35  pump_sem101  #  101c880l1s#  pump_sem101
  1 14 35  pump_sem102  #  102c880l1s#  pump_sem102
  3 14 35  pump_sem93  #   93c880l3s#  pump_sem93
  3 14 35  pump_sem95  #   95c880l3s#  pump_sem95
  3 14 35  pump_sem96  #   96c880l3s#  pump_sem96
  3 14 35  pump_sem101  #  101c880l3s#  pump_sem101
  3 14 35  pump_sem102  #  102c880l3s#  pump_sem102
  4 14 35  pump_sem93  #   93c880l4s#  pump_sem93
  4 14 35  pump_sem95  #   95c880l4s#  pump_sem95
  4 14 35  pump_sem96  #   96c880l4s#  pump_sem96
  4 14 35  pump_sem101  #  101c880l4s#  pump_sem101
  4 14 35  pump_sem102  #  102c880l4s#  pump_sem102
  1 15 8  pump_sem97  #   97c918l1s#  pump_sem97
  1 15 8  pump_sem102  #  102c918l1s#  pump_sem102
  4 15 8  pump_sem97  #   97c918l4s#  pump_sem97
  4 15 8  pump_sem102  #  102c918l4s#  pump_sem102
  5 15 8  pump_sem97  #   97c918l5s#  pump_sem97
  5 15 8  pump_sem102  #  102c918l5s#  pump_sem102
  4 15 9  pump_sem102  #  102c919l4s#  pump_sem102
  5 15 9  pump_sem102  #  102c919l5s#  pump_sem102
  4 15 10  pump_sem102  #  102c920l4s#  pump_sem102
  5 15 10  pump_sem102  #  102c920l5s#  pump_sem102
  4 15 11  pump_sem102  #  102c921l4s#  pump_sem102
  4 15 12  pump_sem81  #   81c922l4s#  pump_sem81
  4 15 12  pump_sem102  #  102c922l4s#  pump_sem102
  4 15 13  pump_sem81  #   81c923l4s#  pump_sem81
  1 15 16  pump_sem81  #   81c926l1s#  pump_sem81
  1 15 16  pump_sem102  #  102c926l1s#  pump_sem102
  3 15 16  pump_sem81  #   81c926l3s#  pump_sem81
  3 15 16  pump_sem102  #  102c926l3s#  pump_sem102
  4 15 16  pump_sem81  #   81c926l4s#  pump_sem81
  4 15 16  pump_sem102  #  102c926l4s#  pump_sem102
  1 15 17  pump_sem81  #   81c927l1s#  pump_sem81
  1 15 17  pump_sem102  #  102c927l1s#  pump_sem102
  3 15 17  pump_sem81  #   81c927l3s#  pump_sem81
  3 15 17  pump_sem102  #  102c927l3s#  pump_sem102
  4 15 17  pump_sem81  #   81c927l4s#  pump_sem81
  4 15 17  pump_sem102  #  102c927l4s#  pump_sem102
  1 15 18  pump_sem102  #  102c928l1s#  pump_sem102
  3 15 18  pump_sem102  #  102c928l3s#  pump_sem102
  4 15 18  pump_sem102  #  102c928l4s#  pump_sem102
  1 15 19  pump_sem93  #   93c929l1s#  pump_sem93
  1 15 19  pump_sem101  #  101c929l1s#  pump_sem101
  1 15 19  pump_sem102  #  102c929l1s#  pump_sem102
  4 15 19  pump_sem93  #   93c929l4s#  pump_sem93
  4 15 19  pump_sem101  #  101c929l4s#  pump_sem101
  4 15 19  pump_sem102  #  102c929l4s#  pump_sem102
  5 15 19  pump_sem93  #   93c929l5s#  pump_sem93
  5 15 19  pump_sem101  #  101c929l5s#  pump_sem101
  5 15 19  pump_sem102  #  102c929l5s#  pump_sem102
  1 15 20  pump_sem93  #   93c930l1s#  pump_sem93
  1 15 20  pump_sem96  #   96c930l1s#  pump_sem96
  1 15 20  pump_sem97  #   97c930l1s#  pump_sem97
  1 15 20  pump_sem101  #  101c930l1s#  pump_sem101
  1 15 20  pump_sem102  #  102c930l1s#  pump_sem102
  4 15 20  pump_sem93  #   93c930l4s#  pump_sem93
  4 15 20  pump_sem96  #   96c930l4s#  pump_sem96
  4 15 20  pump_sem97  #   97c930l4s#  pump_sem97
  4 15 20  pump_sem101  #  101c930l4s#  pump_sem101
  4 15 20  pump_sem102  #  102c930l4s#  pump_sem102
  5 15 20  pump_sem93  #   93c930l5s#  pump_sem93
  5 15 20  pump_sem96  #   96c930l5s#  pump_sem96
  5 15 20  pump_sem97  #   97c930l5s#  pump_sem97
  5 15 20  pump_sem101  #  101c930l5s#  pump_sem101
  5 15 20  pump_sem102  #  102c930l5s#  pump_sem102
  1 15 21  pump_sem93  #   93c931l1s#  pump_sem93
  1 15 21  pump_sem96  #   96c931l1s#  pump_sem96
  1 15 21  pump_sem97  #   97c931l1s#  pump_sem97
  1 15 21  pump_sem101  #  101c931l1s#  pump_sem101
  1 15 21  pump_sem102  #  102c931l1s#  pump_sem102
  4 15 21  pump_sem93  #   93c931l4s#  pump_sem93
  4 15 21  pump_sem96  #   96c931l4s#  pump_sem96
  4 15 21  pump_sem97  #   97c931l4s#  pump_sem97
  4 15 21  pump_sem101  #  101c931l4s#  pump_sem101
  4 15 21  pump_sem102  #  102c931l4s#  pump_sem102
  5 15 21  pump_sem93  #   93c931l5s#  pump_sem93
  5 15 21  pump_sem96  #   96c931l5s#  pump_sem96
  5 15 21  pump_sem97  #   97c931l5s#  pump_sem97
  5 15 21  pump_sem101  #  101c931l5s#  pump_sem101
  5 15 21  pump_sem102  #  102c931l5s#  pump_sem102
  1 15 22  pump_sem95  #   95c932l1s#  pump_sem95
  1 15 22  pump_sem96  #   96c932l1s#  pump_sem96
  4 15 22  pump_sem95  #   95c932l4s#  pump_sem95
  4 15 22  pump_sem96  #   96c932l4s#  pump_sem96
  5 15 22  pump_sem95  #   95c932l5s#  pump_sem95
  5 15 22  pump_sem96  #   96c932l5s#  pump_sem96
  1 15 23  pump_sem95  #   95c933l1s#  pump_sem95
  1 15 23  pump_sem96  #   96c933l1s#  pump_sem96
  4 15 23  pump_sem95  #   95c933l4s#  pump_sem95
  4 15 23  pump_sem96  #   96c933l4s#  pump_sem96
  5 15 23  pump_sem95  #   95c933l5s#  pump_sem95
  5 15 23  pump_sem96  #   96c933l5s#  pump_sem96
  1 15 24  pump_sem95  #   95c934l1s#  pump_sem95
  1 15 24  pump_sem96  #   96c934l1s#  pump_sem96
  4 15 24  pump_sem95  #   95c934l4s#  pump_sem95
  4 15 24  pump_sem96  #   96c934l4s#  pump_sem96
  1 15 25  pump_sem95  #   95c935l1s#  pump_sem95
  4 15 25  pump_sem95  #   95c935l4s#  pump_sem95
  1 15 26  pump_sem95  #   95c936l1s#  pump_sem95
  4 15 26  pump_sem95  #   95c936l4s#  pump_sem95
  1 15 27  pump_sem95  #   95c937l1s#  pump_sem95
  4 15 27  pump_sem95  #   95c937l4s#  pump_sem95
  1 15 28  pump_sem95  #   95c938l1s#  pump_sem95
  4 15 28  pump_sem95  #   95c938l4s#  pump_sem95
  1 15 29  pump_sem95  #   95c939l1s#  pump_sem95
  4 15 29  pump_sem95  #   95c939l4s#  pump_sem95
  1 15 30  pump_sem95  #   95c940l1s#  pump_sem95
  4 15 30  pump_sem95  #   95c940l4s#  pump_sem95
  1 15 31  pump_sem95  #   95c941l1s#  pump_sem95
  4 15 31  pump_sem95  #   95c941l4s#  pump_sem95
  1 15 32  pump_sem95  #   95c942l1s#  pump_sem95
  1 15 32  pump_sem96  #   96c942l1s#  pump_sem96
  4 15 32  pump_sem95  #   95c942l4s#  pump_sem95
  4 15 32  pump_sem96  #   96c942l4s#  pump_sem96
  1 15 33  pump_sem95  #   95c943l1s#  pump_sem95
  1 15 33  pump_sem96  #   96c943l1s#  pump_sem96
  1 15 33  pump_sem102  #  102c943l1s#  pump_sem102
  4 15 33  pump_sem95  #   95c943l4s#  pump_sem95
  4 15 33  pump_sem96  #   96c943l4s#  pump_sem96
  4 15 33  pump_sem102  #  102c943l4s#  pump_sem102
  1 15 34  pump_sem93  #   93c944l1s#  pump_sem93
  1 15 34  pump_sem95  #   95c944l1s#  pump_sem95
  1 15 34  pump_sem96  #   96c944l1s#  pump_sem96
  1 15 34  pump_sem101  #  101c944l1s#  pump_sem101
  1 15 34  pump_sem102  #  102c944l1s#  pump_sem102
  4 15 34  pump_sem93  #   93c944l4s#  pump_sem93
  4 15 34  pump_sem95  #   95c944l4s#  pump_sem95
  4 15 34  pump_sem96  #   96c944l4s#  pump_sem96
  4 15 34  pump_sem101  #  101c944l4s#  pump_sem101
  4 15 34  pump_sem102  #  102c944l4s#  pump_sem102
  1 15 35  pump_sem93  #   93c945l1s#  pump_sem93
  1 15 35  pump_sem101  #  101c945l1s#  pump_sem101
  1 15 35  pump_sem102  #  102c945l1s#  pump_sem102
  3 15 35  pump_sem93  #   93c945l3s#  pump_sem93
  3 15 35  pump_sem101  #  101c945l3s#  pump_sem101
  3 15 35  pump_sem102  #  102c945l3s#  pump_sem102
  4 15 35  pump_sem93  #   93c945l4s#  pump_sem93
  4 15 35  pump_sem101  #  101c945l4s#  pump_sem101
  4 15 35  pump_sem102  #  102c945l4s#  pump_sem102
  1 16 7  pump_sem25  #   25c982l1s#  pump_sem25
  1 16 7  pump_sem62  #   62c982l1s#  pump_sem62
  1 16 7  pump_sem97  #   97c982l1s#  pump_sem97
  5 16 7  pump_sem25  #   25c982l5s#  pump_sem25
  5 16 7  pump_sem62  #   62c982l5s#  pump_sem62
  5 16 7  pump_sem97  #   97c982l5s#  pump_sem97
  1 16 8  pump_sem25  #   25c983l1s#  pump_sem25
  1 16 8  pump_sem62  #   62c983l1s#  pump_sem62
  1 16 8  pump_sem97  #   97c983l1s#  pump_sem97
  1 16 8  pump_sem102  #  102c983l1s#  pump_sem102
  4 16 8  pump_sem25  #   25c983l4s#  pump_sem25