# File generated by Flopy version 3.3.2 on 07/12/2022 at 14:45:38.
BEGIN options
  HEAD  FILEOUT  mf6-tv_hist.hds
END options

BEGIN period  1
  SAVE  HEAD  ALL
  PRINT  HEAD  FIRST
  PRINT  HEAD  LAST
END period  1

BEGIN period  2
  SAVE  HEAD  ALL
END period  2

BEGIN period  3
  SAVE  HEAD  ALL
END period  3

BEGIN period  4
  SAVE  HEAD  ALL
END period  4

BEGIN period  5
  SAVE  HEAD  ALL
END period  5

BEGIN period  6
  SAVE  HEAD  ALL
END period  6

BEGIN period  7
  SAVE  HEAD  ALL
END period  7

BEGIN period  8
  SAVE  HEAD  ALL
END period  8

BEGIN period  9
  SAVE  HEAD  ALL
END period  9

BEGIN period  10
  SAVE  HEAD  ALL
END period  10

BEGIN period  11
  SAVE  HEAD  ALL
END period  11

BEGIN period  12
  SAVE  HEAD  ALL
END period  12

BEGIN period  13
  SAVE  HEAD  ALL
END period  13

BEGIN period  14
  SAVE  HEAD  ALL
END period  14

BEGIN period  15
  SAVE  HEAD  ALL
END period  15

BEGIN period  16
  SAVE  HEAD  ALL
END period  16

BEGIN period  17
  SAVE  HEAD  ALL
END period  17

BEGIN period  18
  SAVE  HEAD  ALL
END period  18

BEGIN period  19
  SAVE  HEAD  ALL
END period  19

BEGIN period  20
  SAVE  HEAD  ALL
END period  20

BEGIN period  21
  SAVE  HEAD  ALL
END period  21

BEGIN period  22
  SAVE  HEAD  ALL
END period  22

BEGIN period  23
  SAVE  HEAD  ALL
END period  23

BEGIN period  24
  SAVE  HEAD  ALL
END period  24

BEGIN period  25
  SAVE  HEAD  ALL
END period  25

BEGIN period  26
  SAVE  HEAD  ALL
END period  26

BEGIN period  27
  SAVE  HEAD  ALL
END period  27

BEGIN period  28
  SAVE  HEAD  ALL
END period  28

BEGIN period  29
  SAVE  HEAD  ALL
END period  29

BEGIN period  30
  SAVE  HEAD  ALL
END period  30

BEGIN period  31
  SAVE  HEAD  ALL
END period  31

BEGIN period  32
  SAVE  HEAD  ALL
END period  32

BEGIN period  33
  SAVE  HEAD  ALL
END period  33

BEGIN period  34
  SAVE  HEAD  ALL
END period  34

BEGIN period  35
  SAVE  HEAD  ALL
END period  35

BEGIN period  36
  SAVE  HEAD  ALL
END period  36

BEGIN period  37
  SAVE  HEAD  ALL
END period  37

BEGIN period  38
  SAVE  HEAD  ALL
END period  38

BEGIN period  39
  SAVE  HEAD  ALL
END period  39

BEGIN period  40
  SAVE  HEAD  ALL
END period  40

BEGIN period  41
  SAVE  HEAD  ALL
END period  41

BEGIN period  42
  SAVE  HEAD  ALL
END period  42

BEGIN period  43
  SAVE  HEAD  ALL
END period  43

BEGIN period  44
  SAVE  HEAD  ALL
END period  44

BEGIN period  45
  SAVE  HEAD  ALL
END period  45

BEGIN period  46
  SAVE  HEAD  ALL
END period  46

BEGIN period  47
  SAVE  HEAD  ALL
END period  47

BEGIN period  48
  SAVE  HEAD  ALL
END period  48

BEGIN period  49
  SAVE  HEAD  ALL
END period  49

BEGIN period  50
  SAVE  HEAD  ALL
END period  50

BEGIN period  51
  SAVE  HEAD  ALL
END period  51

BEGIN period  52
  SAVE  HEAD  ALL
END period  52

BEGIN period  53
  SAVE  HEAD  ALL
END period  53

BEGIN period  54
  SAVE  HEAD  ALL
END period  54

BEGIN period  55
  SAVE  HEAD  ALL
END period  55

BEGIN period  56
  SAVE  HEAD  ALL
END period  56

BEGIN period  57
  SAVE  HEAD  ALL
END period  57

BEGIN period  58
  SAVE  HEAD  ALL
END period  58

BEGIN period  59
  SAVE  HEAD  ALL
END period  59

BEGIN period  60
  SAVE  HEAD  ALL
END period  60

BEGIN period  61
  SAVE  HEAD  ALL
END period  61

BEGIN period  62
  SAVE  HEAD  ALL
END period  62

BEGIN period  63
  SAVE  HEAD  ALL
END period  63

BEGIN period  64
  SAVE  HEAD  ALL
END period  64

BEGIN period  65
  SAVE  HEAD  ALL
END period  65

BEGIN period  66
  SAVE  HEAD  ALL
END period  66

BEGIN period  67
  SAVE  HEAD  ALL
END period  67

BEGIN period  68
  SAVE  HEAD  ALL
END period  68

BEGIN period  69
  SAVE  HEAD  ALL
END period  69

BEGIN period  70
  SAVE  HEAD  ALL
END period  70

BEGIN period  71
  SAVE  HEAD  ALL
END period  71

BEGIN period  72
  SAVE  HEAD  ALL
END period  72

BEGIN period  73
  SAVE  HEAD  ALL
END period  73

BEGIN period  74
  SAVE  HEAD  ALL
END period  74

BEGIN period  75
  SAVE  HEAD  ALL
END period  75

BEGIN period  76
  SAVE  HEAD  ALL
END period  76

BEGIN period  77
  SAVE  HEAD  ALL
END period  77

BEGIN period  78
  SAVE  HEAD  ALL
END period  78

BEGIN period  79
  SAVE  HEAD  ALL
END period  79

BEGIN period  80
  SAVE  HEAD  ALL
END period  80

BEGIN period  81
  SAVE  HEAD  ALL
END period  81

BEGIN period  82
  SAVE  HEAD  ALL
END period  82

BEGIN period  83
  SAVE  HEAD  ALL
END period  83

BEGIN period  84
  SAVE  HEAD  ALL
END period  84

BEGIN period  85
  SAVE  HEAD  ALL
END period  85

BEGIN period  86
  SAVE  HEAD  ALL
END period  86

BEGIN period  87
  SAVE  HEAD  ALL
END period  87

BEGIN period  88
  SAVE  HEAD  ALL
END period  88

BEGIN period  89
  SAVE  HEAD  ALL
END period  89

BEGIN period  90
  SAVE  HEAD  ALL
END period  90

BEGIN period  91
  SAVE  HEAD  ALL
END period  91

BEGIN period  92
  SAVE  HEAD  ALL
END period  92

BEGIN period  93
  SAVE  HEAD  ALL
END period  93

BEGIN period  94
  SAVE  HEAD  ALL
END period  94

BEGIN period  95
  SAVE  HEAD  ALL
END period  95

BEGIN period  96
  SAVE  HEAD  ALL
END period  96

BEGIN period  97
  SAVE  HEAD  ALL
END period  97

BEGIN period  98
  SAVE  HEAD  ALL
END period  98

BEGIN period  99
  SAVE  HEAD  ALL
END period  99

BEGIN period  100
  SAVE  HEAD  ALL
END period  100

BEGIN period  101
  SAVE  HEAD  ALL
END period  101

BEGIN period  102
  SAVE  HEAD  ALL
END period  102

BEGIN period  103
  SAVE  HEAD  ALL
END period  103

BEGIN period  104
  SAVE  HEAD  ALL
END period  104

BEGIN period  105
  SAVE  HEAD  ALL
END period  105

BEGIN period  106
  SAVE  HEAD  ALL
END period  106

BEGIN period  107
  SAVE  HEAD  ALL
END period  107

BEGIN period  108
  SAVE  HEAD  ALL
END period  108

BEGIN period  109
  SAVE  HEAD  ALL
END period  109

BEGIN period  110
  SAVE  HEAD  ALL
END period  110

BEGIN period  111
  SAVE  HEAD  ALL
END period  111

BEGIN period  112
  SAVE  HEAD  ALL
END period  112

BEGIN period  113
  SAVE  HEAD  ALL
END period  113

BEGIN period  114
  SAVE  HEAD  ALL
END period  114

BEGIN period  115
  SAVE  HEAD  ALL
END period  115

BEGIN period  116
  SAVE  HEAD  ALL
END period  116

BEGIN period  117
  SAVE  HEAD  ALL
END period  117

BEGIN period  118
  SAVE  HEAD  ALL
END period  118

BEGIN period  119
  SAVE  HEAD  ALL
END period  119

BEGIN period  120
  SAVE  HEAD  ALL
END period  120

BEGIN period  121
  SAVE  HEAD  ALL
END period  121

BEGIN period  122
  SAVE  HEAD  ALL
END period  122

BEGIN period  123
  SAVE  HEAD  ALL
END period  123

BEGIN period  124
  SAVE  HEAD  ALL
END period  124

BEGIN period  125
  SAVE  HEAD  ALL
END period  125

BEGIN period  126
  SAVE  HEAD  ALL
END period  126

BEGIN period  127
  SAVE  HEAD  ALL
END period  127

BEGIN period  128
  SAVE  HEAD  ALL
END period  128

BEGIN period  129
  SAVE  HEAD  ALL
END period  129

BEGIN period  130
  SAVE  HEAD  ALL
END period  130

BEGIN period  131
  SAVE  HEAD  ALL
END period  131

BEGIN period  132
  SAVE  HEAD  ALL
END period  132

BEGIN period  133
  SAVE  HEAD  ALL
END period  133

BEGIN period  134
  SAVE  HEAD  ALL
END period  134

BEGIN period  135
  SAVE  HEAD  ALL
END period  135

BEGIN period  136
  SAVE  HEAD  ALL
END period  136

BEGIN period  137
  SAVE  HEAD  ALL
END period  137

BEGIN period  138
  SAVE  HEAD  ALL
END period  138

BEGIN period  139
  SAVE  HEAD  ALL
END period  139

BEGIN period  140
  SAVE  HEAD  ALL
END period  140

BEGIN period  141
  SAVE  HEAD  ALL
END period  141

BEGIN period  142
  SAVE  HEAD  ALL
END period  142

BEGIN period  143
  SAVE  HEAD  ALL
END period  143

BEGIN period  144
  SAVE  HEAD  ALL
END period  144

BEGIN period  145
  SAVE  HEAD  ALL
END period  145

BEGIN period  146
  SAVE  HEAD  ALL
END period  146

BEGIN period  147
  SAVE  HEAD  ALL
END period  147

BEGIN period  148
  SAVE  HEAD  ALL
END period  148

BEGIN period  149
  SAVE  HEAD  ALL
END period  149

BEGIN period  150
  SAVE  HEAD  ALL
END period  150

BEGIN period  151
  SAVE  HEAD  ALL
END period  151

BEGIN period  152
  SAVE  HEAD  ALL
END period  152

BEGIN period  153
  SAVE  HEAD  ALL
END period  153

BEGIN period  154
  SAVE  HEAD  ALL
END period  154

BEGIN period  155
  SAVE  HEAD  ALL
END period  155

BEGIN period  156
  SAVE  HEAD  ALL
END period  156

BEGIN period  157
  SAVE  HEAD  ALL
END period  157

BEGIN period  158
  SAVE  HEAD  ALL
END period  158

BEGIN period  159
  SAVE  HEAD  ALL
END period  159

BEGIN period  160
  SAVE  HEAD  ALL
END period  160

BEGIN period  161
  SAVE  HEAD  ALL
END period  161

BEGIN period  162
  SAVE  HEAD  ALL
END period  162

BEGIN period  163
  SAVE  HEAD  ALL
END period  163

BEGIN period  164
  SAVE  HEAD  ALL
END period  164

BEGIN period  165
  SAVE  HEAD  ALL
END period  165

BEGIN period  166
  SAVE  HEAD  ALL
END period  166

BEGIN period  167
  SAVE  HEAD  ALL
END period  167

BEGIN period  168
  SAVE  HEAD  ALL
END period  168

BEGIN period  169
  SAVE  HEAD  ALL
END period  169

BEGIN period  170
  SAVE  HEAD  ALL
END period  170

BEGIN period  171
  SAVE  HEAD  ALL
END period  171

BEGIN period  172
  SAVE  HEAD  ALL
END period  172

BEGIN period  173
  SAVE  HEAD  ALL
END period  173

BEGIN period  174
  SAVE  HEAD  ALL
END period  174

BEGIN period  175
  SAVE  HEAD  ALL
END period  175

BEGIN period  176
  SAVE  HEAD  ALL
END period  176

BEGIN period  177
  SAVE  HEAD  ALL
END period  177

BEGIN period  178
  SAVE  HEAD  ALL
END period  178

BEGIN period  179
  SAVE  HEAD  ALL
END period  179

BEGIN period  180
  SAVE  HEAD  ALL
END period  180

BEGIN period  181
  SAVE  HEAD  ALL
END period  181

BEGIN period  182
  SAVE  HEAD  ALL
END period  182

BEGIN period  183
  SAVE  HEAD  ALL
END period  183

BEGIN period  184
  SAVE  HEAD  ALL
END period  184

BEGIN period  185
  SAVE  HEAD  ALL
END period  185

BEGIN period  186
  SAVE  HEAD  ALL
END period  186

BEGIN period  187
  SAVE  HEAD  ALL
END period  187

BEGIN period  188
  SAVE  HEAD  ALL
END period  188

BEGIN period  189
  SAVE  HEAD  ALL
END period  189

BEGIN period  190
  SAVE  HEAD  ALL
END period  190

BEGIN period  191
  SAVE  HEAD  ALL
END period  191

BEGIN period  192
  SAVE  HEAD  ALL
END period  192

BEGIN period  193
  SAVE  HEAD  ALL
END period  193

BEGIN period  194
  SAVE  HEAD  ALL
END period  194

BEGIN period  195
  SAVE  HEAD  ALL
END period  195

BEGIN period  196
  SAVE  HEAD  ALL
END period  196

BEGIN period  197
  SAVE  HEAD  ALL
END period  197

BEGIN period  198
  SAVE  HEAD  ALL
END period  198

BEGIN period  199
  SAVE  HEAD  ALL
END period  199

BEGIN period  200
  SAVE  HEAD  ALL
END period  200

BEGIN period  201
  SAVE  HEAD  ALL
END period  201

BEGIN period  202
  SAVE  HEAD  ALL
END period  202

BEGIN period  203
  SAVE  HEAD  ALL
END period  203

BEGIN period  204
  SAVE  HEAD  ALL
END period  204

BEGIN period  205
  SAVE  HEAD  ALL
END period  205

BEGIN period  206
  SAVE  HEAD  ALL
END period  206

BEGIN period  207
  SAVE  HEAD  ALL
END period  207

BEGIN period  208
  SAVE  HEAD  ALL
END period  208

BEGIN period  209
  SAVE  HEAD  ALL
END period  209

BEGIN period  210
  SAVE  HEAD  ALL
END period  210

BEGIN period  211
  SAVE  HEAD  ALL
END period  211

BEGIN period  212
  SAVE  HEAD  ALL
END period  212

BEGIN period  213
  SAVE  HEAD  ALL
END period  213

BEGIN period  214
  SAVE  HEAD  ALL
END period  214

BEGIN period  215
  SAVE  HEAD  ALL
END period  215

BEGIN period  216
  SAVE  HEAD  ALL
END period  216

BEGIN period  217
  SAVE  HEAD  ALL
END period  217

BEGIN period  218
  SAVE  HEAD  ALL
END period  218

BEGIN period  219
  SAVE  HEAD  ALL
END period  219

BEGIN period  220
  SAVE  HEAD  ALL
END period  220

BEGIN period  221
  SAVE  HEAD  ALL
END period  221

BEGIN period  222
  SAVE  HEAD  ALL
END period  222

BEGIN period  223
  SAVE  HEAD  ALL
END period  223

BEGIN period  224
  SAVE  HEAD  ALL
END period  224

BEGIN period  225
  SAVE  HEAD  ALL
END period  225

BEGIN period  226
  SAVE  HEAD  ALL
END period  226

BEGIN period  227
  SAVE  HEAD  ALL
END period  227

BEGIN period  228
  SAVE  HEAD  ALL
END period  228

BEGIN period  229
  SAVE  HEAD  ALL
END period  229

BEGIN period  230
  SAVE  HEAD  ALL
END period  230

BEGIN period  231
  SAVE  HEAD  ALL
END period  231

BEGIN period  232
  SAVE  HEAD  ALL
END period  232

BEGIN period  233
  SAVE  HEAD  ALL
END period  233

BEGIN period  234
  SAVE  HEAD  ALL
END period  234

BEGIN period  235
  SAVE  HEAD  ALL
END period  235

BEGIN period  236
  SAVE  HEAD  ALL
END period  236

BEGIN period  237
  SAVE  HEAD  ALL
END period  237

BEGIN period  238
  SAVE  HEAD  ALL
END period  238

BEGIN period  239
  SAVE  HEAD  ALL
END period  239

BEGIN period  240
  SAVE  HEAD  ALL
END period  240

BEGIN period  241
  SAVE  HEAD  ALL
END period  241

BEGIN period  242
  SAVE  HEAD  ALL
END period  242

BEGIN period  243
  SAVE  HEAD  ALL
END period  243

BEGIN period  244
  SAVE  HEAD  ALL
END period  244

BEGIN period  245
  SAVE  HEAD  ALL
END period  245

BEGIN period  246
  SAVE  HEAD  ALL
END period  246

BEGIN period  247
  SAVE  HEAD  ALL
END period  247

BEGIN period  248
  SAVE  HEAD  ALL
END period  248

BEGIN period  249
  SAVE  HEAD  ALL
END period  249

BEGIN period  250
  SAVE  HEAD  ALL
END period  250

BEGIN period  251
  SAVE  HEAD  ALL
END period  251

BEGIN period  252
  SAVE  HEAD  ALL
END period  252

BEGIN period  253
  SAVE  HEAD  ALL
END period  253

BEGIN period  254
  SAVE  HEAD  ALL
END period  254

BEGIN period  255
  SAVE  HEAD  ALL
END period  255

BEGIN period  256
  SAVE  HEAD  ALL
END period  256

BEGIN period  257
  SAVE  HEAD  ALL
END period  257

BEGIN period  258
  SAVE  HEAD  ALL
END period  258

BEGIN period  259
  SAVE  HEAD  ALL
END period  259

BEGIN period  260
  SAVE  HEAD  ALL
END period  260

BEGIN period  261
  SAVE  HEAD  ALL
END period  261

BEGIN period  262
  SAVE  HEAD  ALL
END period  262

BEGIN period  263
  SAVE  HEAD  ALL
END period  263

BEGIN period  264
  SAVE  HEAD  ALL
END period  264

BEGIN period  265
  SAVE  HEAD  ALL
END period  265

BEGIN period  266
  SAVE  HEAD  ALL
END period  266

BEGIN period  267
  SAVE  HEAD  ALL
END period  267

BEGIN period  268
  SAVE  HEAD  ALL
END period  268

BEGIN period  269
  SAVE  HEAD  ALL
END period  269

BEGIN period  270
  SAVE  HEAD  ALL
END period  270

BEGIN period  271
  SAVE  HEAD  ALL
END period  271

BEGIN period  272
  SAVE  HEAD  ALL
END period  272

BEGIN period  273
  SAVE  HEAD  ALL
END period  273

BEGIN period  274
  SAVE  HEAD  ALL
END period  274

BEGIN period  275
  SAVE  HEAD  ALL
END period  275

BEGIN period  276
  SAVE  HEAD  ALL
END period  276

BEGIN period  277
  SAVE  HEAD  ALL
END period  277

BEGIN period  278
  SAVE  HEAD  ALL
END period  278

BEGIN period  279
  SAVE  HEAD  ALL
END period  279

BEGIN period  280
  SAVE  HEAD  ALL
END period  280

BEGIN period  281
  SAVE  HEAD  ALL
END period  281

BEGIN period  282
  SAVE  HEAD  ALL
END period  282

BEGIN period  283
  SAVE  HEAD  ALL
END period  283

BEGIN period  284
  SAVE  HEAD  ALL
END period  284

BEGIN period  285
  SAVE  HEAD  ALL
END period  285

BEGIN period  286
  SAVE  HEAD  ALL
END period  286

BEGIN period  287
  SAVE  HEAD  ALL
END period  287

BEGIN period  288
  SAVE  HEAD  ALL
END period  288

BEGIN period  289
  SAVE  HEAD  ALL
END period  289

BEGIN period  290
  SAVE  HEAD  ALL
END period  290

BEGIN period  291
  SAVE  HEAD  ALL
END period  291

BEGIN period  292
  SAVE  HEAD  ALL
END period  292

BEGIN period  293
  SAVE  HEAD  ALL
END period  293

BEGIN period  294
  SAVE  HEAD  ALL
END period  294

BEGIN period  295
  SAVE  HEAD  ALL
END period  295

BEGIN period  296
  SAVE  HEAD  ALL
END period  296

BEGIN period  297
  SAVE  HEAD  ALL
END period  297

BEGIN period  298
  SAVE  HEAD  ALL
END period  298

BEGIN period  299
  SAVE  HEAD  ALL
END period  299

BEGIN period  300
  SAVE  HEAD  ALL
END period  300

BEGIN period  301
  SAVE  HEAD  ALL
END period  301

BEGIN period  302
  SAVE  HEAD  ALL
END period  302

BEGIN period  303
  SAVE  HEAD  ALL
END period  303

BEGIN period  304
  SAVE  HEAD  ALL
END period  304

BEGIN period  305
  SAVE  HEAD  ALL
END period  305

BEGIN period  306
  SAVE  HEAD  ALL
END period  306

BEGIN period  307
  SAVE  HEAD  ALL
END period  307

BEGIN period  308
  SAVE  HEAD  ALL
END period  308

BEGIN period  309
  SAVE  HEAD  ALL
END period  309

BEGIN period  310
  SAVE  HEAD  ALL
END period  310

BEGIN period  311
  SAVE  HEAD  ALL
END period  311

BEGIN period  312
  SAVE  HEAD  ALL
END period  312

BEGIN period  313
  SAVE  HEAD  ALL
END period  313

BEGIN period  314
  SAVE  HEAD  ALL
END period  314

BEGIN period  315
  SAVE  HEAD  ALL
END period  315

BEGIN period  316
  SAVE  HEAD  ALL
END period  316

BEGIN period  317
  SAVE  HEAD  ALL
END period  317

BEGIN period  318
  SAVE  HEAD  ALL
END period  318

BEGIN period  319
  SAVE  HEAD  ALL
END period  319

BEGIN period  320
  SAVE  HEAD  ALL
END period  320

BEGIN period  321
  SAVE  HEAD  ALL
END period  321

BEGIN period  322
  SAVE  HEAD  ALL
END period  322

BEGIN period  323
  SAVE  HEAD  ALL
END period  323

BEGIN period  324
  SAVE  HEAD  ALL
END period  324

BEGIN period  325
  SAVE  HEAD  ALL
END period  325

BEGIN period  326
  SAVE  HEAD  ALL
END period  326

BEGIN period  327
  SAVE  HEAD  ALL
END period  327

BEGIN period  328
  SAVE  HEAD  ALL
END period  328

BEGIN period  329
  SAVE  HEAD  ALL
END period  329

BEGIN period  330
  SAVE  HEAD  ALL
END period  330

BEGIN period  331
  SAVE  HEAD  ALL
END period  331

BEGIN period  332
  SAVE  HEAD  ALL
END period  332

BEGIN period  333
  SAVE  HEAD  ALL
END period  333

BEGIN period  334
  SAVE  HEAD  ALL
END period  334

BEGIN period  335
  SAVE  HEAD  ALL
END period  335

BEGIN period  336
  SAVE  HEAD  ALL
END period  336

BEGIN period  337
  SAVE  HEAD  ALL
END period  337

BEGIN period  338
  SAVE  HEAD  ALL
END period  338

BEGIN period  339
  SAVE  HEAD  ALL
END period  339

BEGIN period  340
  SAVE  HEAD  ALL
END period  340

BEGIN period  341
  SAVE  HEAD  ALL
END period  341

BEGIN period  342
  SAVE  HEAD  ALL
END period  342

BEGIN period  343
  SAVE  HEAD  ALL
END period  343

BEGIN period  344
  SAVE  HEAD  ALL
END period  344

BEGIN period  345
  SAVE  HEAD  ALL
END period  345

BEGIN period  346
  SAVE  HEAD  ALL
END period  346

BEGIN period  347
  SAVE  HEAD  ALL
END period  347

BEGIN period  348
  SAVE  HEAD  ALL
END period  348

BEGIN period  349
  SAVE  HEAD  ALL
END period  349

BEGIN period  350
  SAVE  HEAD  ALL
END period  350

BEGIN period  351
  SAVE  HEAD  ALL
END period  351

BEGIN period  352
  SAVE  HEAD  ALL
END period  352

BEGIN period  353
  SAVE  HEAD  ALL
END period  353

BEGIN period  354
  SAVE  HEAD  ALL
END period  354

BEGIN period  355
  SAVE  HEAD  ALL
END period  355

BEGIN period  356
  SAVE  HEAD  ALL
END period  356

BEGIN period  357
  SAVE  HEAD  ALL
END period  357

BEGIN period  358
  SAVE  HEAD  ALL
END period  358

BEGIN period  359
  SAVE  HEAD  ALL
END period  359

BEGIN period  360
  SAVE  HEAD  ALL
END period  360

BEGIN period  361
  SAVE  HEAD  ALL
END period  361

