pcf
* control data
             restart      regularization
      3424     31655        26      4883        25         0
        36         9              single               point         1         0         0          noobsreref
   2.000000E+01  -3.000000E+00   3.000000E-01   1.000000E-02        -7       999          lamforgive        noderforgive
   1.000000E+01   1.000000E+01   1.000000E-03         0         1
   1.000000E-01        10   1.100000E+00               noaui          nosenreuse        noboundscale
0   1.000000E-02         3         3   1.000000E-02         3   0.000000E+00         0  -1.000000E+00
         0         0         0         0             jcosave        noverboserec        nojcosaveitn          reisaveitn          parsaveitn        noparsaverun
* singular value decomposition
         1
        46    1.000000E-05
1
* parameter groups
 hk                      relative              1.0000000000E-02       0.0  switch                2.0000000000E+00       parabolic              1.0000000000E-05       5.0000000000E-01       smaller
 vk                      relative              1.0000000000E-02       0.0  switch                2.0000000000E+00       parabolic              1.0000000000E-05       5.0000000000E-01       smaller
 ss                      relative              1.0000000000E-02       0.0  switch                2.0000000000E+00       parabolic              1.0000000000E-05       5.0000000000E-01       smaller
 infacsem                relative              1.0000000000E-02       0.0  switch                2.0000000000E+00       parabolic              1.0000000000E-05       5.0000000000E-01       smaller
 mxfacsem                relative              1.0000000000E-02       0.0  switch                2.0000000000E+00       parabolic              1.0000000000E-05       5.0000000000E-01       smaller
 etfac                   relative              1.0000000000E-02       0.0  switch                2.0000000000E+00       parabolic              1.0000000000E-05       5.0000000000E-01       smaller
 mxfacirr                relative              1.0000000000E-02       0.0  switch                2.0000000000E+00       parabolic              1.0000000000E-05       5.0000000000E-01       smaller
 infacirr                relative              1.0000000000E-02       0.0  switch                2.0000000000E+00       parabolic              1.0000000000E-05       5.0000000000E-01       smaller
 runfac                  relative              1.0000000000E-02       0.0  switch                2.0000000000E+00       parabolic              1.0000000000E-05       5.0000000000E-01       smaller
 leakfac                 relative              1.0000000000E-02       0.0  switch                2.0000000000E+00       parabolic              1.0000000000E-05       5.0000000000E-01       smaller
 drncnd                  relative              1.0000000000E-02       0.0  switch                2.0000000000E+00       parabolic              1.0000000000E-05       5.0000000000E-01       smaller
 rivcond                 relative              1.0000000000E-02       0.0  switch                2.0000000000E+00       parabolic              1.0000000000E-05       5.0000000000E-01       smaller
 tribmult                relative              1.0000000000E-02       0.0  switch                2.0000000000E+00       parabolic              1.0000000000E-05       5.0000000000E-01       smaller
 ssfac                   relative              1.0000000000E-02       0.0  switch                2.0000000000E+00       parabolic              1.0000000000E-05       5.0000000000E-01       smaller
 nyleakfac               relative              1.0000000000E-02       0.0  switch                2.0000000000E+00       parabolic              1.0000000000E-05       5.0000000000E-01       smaller
 tribdp                  relative              1.0000000000E-02       0.0  switch                2.0000000000E+00       parabolic              1.0000000000E-05       5.0000000000E-01       smaller
 infacsemgbl             relative              1.0000000000E-02       0.0  switch                2.0000000000E+00       parabolic              1.0000000000E-05       5.0000000000E-01       smaller
 leakfacgbl              relative              1.0000000000E-02       0.0  switch                2.0000000000E+00       parabolic              1.0000000000E-05       5.0000000000E-01       smaller
 mxfacsemgbl             relative              1.0000000000E-02       0.0  switch                2.0000000000E+00       parabolic              1.0000000000E-05       5.0000000000E-01       smaller
 leakdistprop            relative              1.0000000000E-02       0.0  switch                2.0000000000E+00       parabolic              1.0000000000E-05       5.0000000000E-01       smaller
 nycanalcnd              relative              1.0000000000E-02       0.0  switch                2.0000000000E+00       parabolic              1.0000000000E-05       5.0000000000E-01       smaller
 infacirrgbl             relative              1.0000000000E-02       0.0  switch                2.0000000000E+00       parabolic              1.0000000000E-05       5.0000000000E-01       smaller
 runfacgbl               relative              1.0000000000E-02       0.0  switch                2.0000000000E+00       parabolic              1.0000000000E-05       5.0000000000E-01       smaller
 mxfacirrgbl             relative              1.0000000000E-02       0.0  switch                2.0000000000E+00       parabolic              1.0000000000E-05       5.0000000000E-01       smaller
 lowellcond              relative              1.0000000000E-02       0.0  switch                2.0000000000E+00       parabolic              1.0000000000E-05       5.0000000000E-01       smaller
 etfacgbl                relative              1.0000000000E-02       0.0  switch                2.0000000000E+00       parabolic              1.0000000000E-05       5.0000000000E-01       smaller
* parameter data
drncnd01               log                    factor    897.7825      1.0000000000e-01      1.0000000000e+07       drncnd                1.0000000000e+00      0.0000000000e+00       1
drncnd02               log                    factor    1157.9934      1.0000000000e-01      1.0000000000e+07       drncnd                1.0000000000e+00      0.0000000000e+00       1
drncnd03               log                    factor    214.8290      1.0000000000e-01      1.0000000000e+07       drncnd                1.0000000000e+00      0.0000000000e+00       1
drncnd04               log                    factor    13893.317      1.0000000000e-01      1.0000000000e+07       drncnd                1.0000000000e+00      0.0000000000e+00       1
drncnd05               log                    factor    5079.489      1.0000000000e-01      1.0000000000e+07       drncnd                1.0000000000e+00      0.0000000000e+00       1
drncnd06               log                    factor    1880.76      1.0000000000e-01      1.0000000000e+07       drncnd                1.0000000000e+00      0.0000000000e+00       1
drncnd07               log                    factor    18518.227      1.0000000000e-01      1.0000000000e+07       drncnd                1.0000000000e+00      0.0000000000e+00       1
drncnd08               log                    factor    43883.22      1.0000000000e-01      1.0000000000e+07       drncnd                1.0000000000e+00      0.0000000000e+00       1
drncnd09               log                    factor    166193.85      1.0000000000e-01      1.0000000000e+07       drncnd                1.0000000000e+00      0.0000000000e+00       1
drncnd10               log                    factor    10291.22      1.0000000000e-01      1.0000000000e+07       drncnd                1.0000000000e+00      0.0000000000e+00       1
drncnd11               log                    factor    33102.63      1.0000000000e-01      1.0000000000e+07       drncnd                1.0000000000e+00      0.0000000000e+00       1
drncnd12               log                    factor    166193        1.0000000000e-01      1.0000000000e+07       drncnd                1.0000000000e+00      0.0000000000e+00       1
drncnd13               fixed                  factor    5582.79      1.0000000000e-01      1.0000000000e+07       drncnd                1.0000000000e+00      0.0000000000e+00       1
drncnd14               log                    factor    17189.949      1.0000000000e-01      1.0000000000e+07       drncnd                1.0000000000e+00      0.0000000000e+00       1
drncnd15               log                    factor    2602.06      1.0000000000e-01      1.0000000000e+07       drncnd                1.0000000000e+00      0.0000000000e+00       1
drncnd16               log                    factor    68708.0      1.0000000000e-01      1.0000000000e+07       drncnd                1.0000000000e+00      0.0000000000e+00       1
drncnd17               log                    factor    36368.55      1.0000000000e-01      1.0000000000e+07       drncnd                1.0000000000e+00      0.0000000000e+00       1
drncnd18               log                    factor    5087.993      1.0000000000e-01      1.0000000000e+07       drncnd                1.0000000000e+00      0.0000000000e+00       1
drncnd85               log                    factor    1.960521      1.0000000000e-01      1.0000000000e+07       drncnd                1.0000000000e+00      0.0000000000e+00       1
drncnd89               log                    factor    13255.268      1.0000000000e-01      1.0000000000e+07       drncnd                1.0000000000e+00      0.0000000000e+00       1
etfac_05               fixed                  factor   0.9962670      9.4100000000e-01      1.0500000000e+00       etfac                 1.0000000000e+00      0.0000000000e+00       1
etfac_100              fixed                  factor   0.9878750      9.4100000000e-01      1.0500000000e+00       etfac                 1.0000000000e+00      0.0000000000e+00       1
etfac_101              fixed                  factor   0.9962865      9.4100000000e-01      1.0500000000e+00       etfac                 1.0000000000e+00      0.0000000000e+00       1
etfac_102              fixed                  factor    1.002589      9.5000000000e-01      1.0600000000e+00       etfac                 1.0000000000e+00      0.0000000000e+00       1
etfac_14               fixed                  factor   0.9410000      9.4100000000e-01      1.0500000000e+00       etfac                 1.0000000000e+00      0.0000000000e+00       1
etfac_16               fixed                  factor   0.9410000      9.4100000000e-01      1.0500000000e+00       etfac                 1.0000000000e+00      0.0000000000e+00       1
etfac_25               fixed                  factor   0.9410000      9.4100000000e-01      1.0500000000e+00       etfac                 1.0000000000e+00      0.0000000000e+00       1
etfac_26               fixed                  factor   0.9410000      9.4100000000e-01      1.0500000000e+00       etfac                 1.0000000000e+00      0.0000000000e+00       1
etfac_35               fixed                  factor   0.9410000      9.4100000000e-01      1.0500000000e+00       etfac                 1.0000000000e+00      0.0000000000e+00       1
etfac_53               fixed                  factor   0.9938040      9.4100000000e-01      1.0500000000e+00       etfac                 1.0000000000e+00      0.0000000000e+00       1
etfac_54               fixed                  factor   0.9410000      9.4100000000e-01      1.0500000000e+00       etfac                 1.0000000000e+00      0.0000000000e+00       1
etfac_58               fixed                  factor   0.9410000      9.4100000000e-01      1.0500000000e+00       etfac                 1.0000000000e+00      0.0000000000e+00       1
etfac_59               fixed                  factor   0.9410000      9.4100000000e-01      1.0500000000e+00       etfac                 1.0000000000e+00      0.0000000000e+00       1
etfac_60               fixed                  factor   0.9410000      9.4100000000e-01      1.0500000000e+00       etfac                 1.0000000000e+00      0.0000000000e+00       1
etfac_62               fixed                  factor   0.9410000      9.4100000000e-01      1.0500000000e+00       etfac                 1.0000000000e+00      0.0000000000e+00       1
etfac_64               fixed                  factor   0.9964114      9.4100000000e-01      1.0500000000e+00       etfac                 1.0000000000e+00      0.0000000000e+00       1
etfac_68               fixed                  factor   0.9410000      9.4100000000e-01      1.0500000000e+00       etfac                 1.0000000000e+00      0.0000000000e+00       1
etfac_70               fixed                  factor   0.9410000      9.4100000000e-01      1.0500000000e+00       etfac                 1.0000000000e+00      0.0000000000e+00       1
etfac_71               fixed                  factor   0.9410000      9.4100000000e-01      1.0500000000e+00       etfac                 1.0000000000e+00      0.0000000000e+00       1
etfac_75               fixed                  factor    1.005859      9.5000000000e-01      1.0600000000e+00       etfac                 1.0000000000e+00      0.0000000000e+00       1
etfac_77               fixed                  factor   0.9956402      9.4100000000e-01      1.0500000000e+00       etfac                 1.0000000000e+00      0.0000000000e+00       1
etfac_78               fixed                  factor   0.965557      9.4100000000e-01      1.0500000000e+00       etfac                 1.0000000000e+00      0.0000000000e+00       1
etfac_79               fixed                  factor   0.960010      9.4100000000e-01      1.0500000000e+00       etfac                 1.0000000000e+00      0.0000000000e+00       1
etfac_81               fixed                  factor   0.9410000      9.4100000000e-01      1.0500000000e+00       etfac                 1.0000000000e+00      0.0000000000e+00       1
etfac_84               fixed                  factor   0.9967433      9.4100000000e-01      1.0500000000e+00       etfac                 1.0000000000e+00      0.0000000000e+00       1
etfac_85               fixed                  factor   0.9967502      9.4100000000e-01      1.0500000000e+00       etfac                 1.0000000000e+00      0.0000000000e+00       1
etfac_87               fixed                  factor   0.9410000      9.4100000000e-01      1.0500000000e+00       etfac                 1.0000000000e+00      0.0000000000e+00       1
etfac_88               fixed                  factor   0.9410000      9.4100000000e-01      1.0500000000e+00       etfac                 1.0000000000e+00      0.0000000000e+00       1
etfac_89               fixed                  factor   0.9410000      9.4100000000e-01      1.0500000000e+00       etfac                 1.0000000000e+00      0.0000000000e+00       1
etfac_90               fixed                  factor   0.9410000      9.4100000000e-01      1.0500000000e+00       etfac                 1.0000000000e+00      0.0000000000e+00       1
etfac_91               fixed                  factor   0.9410000      9.4100000000e-01      1.0500000000e+00       etfac                 1.0000000000e+00      0.0000000000e+00       1
etfac_92               fixed                  factor   0.9410000      9.4100000000e-01      1.0500000000e+00       etfac                 1.0000000000e+00      0.0000000000e+00       1
etfac_93               fixed                  factor   0.9410000      9.4100000000e-01      1.0500000000e+00       etfac                 1.0000000000e+00      0.0000000000e+00       1
etfac_94               fixed                  factor   0.9410000      9.4100000000e-01      1.0500000000e+00       etfac                 1.0000000000e+00      0.0000000000e+00       1
etfac_95               fixed                  factor   0.9410000      9.4100000000e-01      1.0500000000e+00       etfac                 1.0000000000e+00      0.0000000000e+00       1
etfac_96               fixed                  factor   0.9410000      9.4100000000e-01      1.0500000000e+00       etfac                 1.0000000000e+00      0.0000000000e+00       1
etfac_97               fixed                  factor   0.9410000      9.4100000000e-01      1.0500000000e+00       etfac                 1.0000000000e+00      0.0000000000e+00       1
etfac_98               fixed                  factor   0.9410000      9.4100000000e-01      1.0500000000e+00       etfac                 1.0000000000e+00      0.0000000000e+00       1
etfac_99               fixed                  factor   0.9410000      9.4100000000e-01      1.0500000000e+00       etfac                 1.0000000000e+00      0.0000000000e+00       1
etfacgbl               fixed                  factor   0.92500000      9.2500000000e-01      1.0500000000e+00       etfacgbl              1.0000000000e+00      0.0000000000e+00       1
hk1__000               fixed                  factor    146.9900      7.7600000000e-04      1.4800000000e+02       hk                    1.0000000000e+00      0.0000000000e+00       1
hk1__001               fixed                  factor    146.0046      7.7600000000e-04      1.4700000000e+02       hk                    1.0000000000e+00      0.0000000000e+00       1
hk1__002               fixed                  factor    146.8035      7.7600000000e-04      1.4700000000e+02       hk                    1.0000000000e+00      0.0000000000e+00       1
hk1__003               fixed                  factor    146.1018      7.7600000000e-04      1.4700000000e+02       hk                    1.0000000000e+00      0.0000000000e+00       1
hk1__004               fixed                  factor    146.8033      7.7600000000e-04      1.4700000000e+02       hk                    1.0000000000e+00      0.0000000000e+00       1
hk1__005               fixed                  factor    146.0082      7.7600000000e-04      1.4700000000e+02       hk                    1.0000000000e+00      0.0000000000e+00       1
hk1__006               fixed                  factor    510.8035      8.7800000000e-03      1.7500000000e+03       hk                    1.0000000000e+00      0.0000000000e+00       1
hk1__007               fixed                  factor    453.0305      8.7800000000e-03      1.7500000000e+03       hk                    1.0000000000e+00      0.0000000000e+00       1
hk1__008               fixed                  factor    352.0238      8.7800000000e-03      1.7500000000e+03       hk                    1.0000000000e+00      0.0000000000e+00       1
hk1__009               fixed                  factor    221.0149      8.7800000000e-03      1.7500000000e+03       hk                    1.0000000000e+00      0.0000000000e+00       1
hk1__010               fixed                  factor    690.0128      4.7800000000e-03      9.4700000000e+02       hk                    1.0000000000e+00      0.0000000000e+00       1
hk1__011               fixed                  factor   0.5830393      8.7800000000e-03      1.7500000000e+03       hk                    1.0000000000e+00      0.0000000000e+00       1
hk1__012               fixed                  factor    3.330225      8.7800000000e-03      1.7500000000e+03       hk                    1.0000000000e+00      0.0000000000e+00       1
hk1__013               fixed                  factor    6.830461      8.7800000000e-03      1.7500000000e+03       hk                    1.0000000000e+00      0.0000000000e+00       1
hk1__014               fixed                  factor    8.00095      8.7800000000e-03      1.7500000000e+03       hk                    1.0000000000e+00      0.0000000000e+00       1
hk1__015               fixed                  factor    621.0134      8.7800000000e-03      1.7500000000e+03       hk                    1.0000000000e+00      0.0000000000e+00       1
hk1__016               fixed                  factor    97.20519      5.7300000000e-03      1.1400000000e+03       hk                    1.0000000000e+00      0.0000000000e+00       1
hk1__017               fixed                  factor    20.0324      8.7800000000e-03      1.7500000000e+03       hk                    1.0000000000e+00      0.0000000000e+00       1
hk1__018               fixed                  factor    56.0158      7.7600000000e-04      1.4800000000e+02       hk                    1.0000000000e+00      0.0000000000e+00       1
hk1__019               fixed                  factor    58.0146      7.7600000000e-04      1.4700000000e+02       hk                    1.0000000000e+00      0.0000000000e+00       1
hk1__020               fixed                  factor    142.0095      7.7600000000e-04      1.4700000000e+02       hk                    1.0000000000e+00      0.0000000000e+00       1
hk1__021               fixed                  factor    4.710325      8.2400000000e-03      1.6400000000e+03       hk                    1.0000000000e+00      0.0000000000e+00       1
hk1__022               fixed                  factor    3.370229      8.7800000000e-03      1.7500000000e+03       hk                    1.0000000000e+00      0.0000000000e+00       1
hk1__023               fixed                  factor    6.619997      8.7800000000e-03      1.7500000000e+03       hk                    1.0000000000e+00      0.0000000000e+00       1
hk1__024               fixed                  factor    10.10068      8.7800000000e-03      1.7500000000e+03       hk                    1.0000000000e+00      0.0000000000e+00       1
hk1__025               fixed                  factor    7.030475      8.7800000000e-03      1.7500000000e+03       hk                    1.0000000000e+00      0.0000000000e+00       1
hk1__026               fixed                  factor    458.0084      8.7800000000e-03      1.7500000000e+03       hk                    1.0000000000e+00      0.0000000000e+00       1
hk1__027               fixed                  factor    146.8975      7.7600000000e-04      1.4700000000e+02       hk                    1.0000000000e+00      0.0000000000e+00       1
hk1__028               fixed                  factor    435.0105      5.5200000000e-03      1.1000000000e+03       hk                    1.0000000000e+00      0.0000000000e+00       1
hk1__029               fixed                  factor    432.0140      8.7800000000e-03      1.7500000000e+03       hk                    1.0000000000e+00      0.0000000000e+00       1
hk1__030               fixed                  factor    186.0122      3.0200000000e-03      5.9500000000e+02       hk                    1.0000000000e+00      0.0000000000e+00       1
hk1__031               fixed                  factor    284.0000      1.6200000000e-03      3.0700000000e+02       hk                    1.0000000000e+00      0.0000000000e+00       1
hk1__032               fixed                  factor    4.810336      7.7600000000e-04      1.4700000000e+02       hk                    1.0000000000e+00      0.0000000000e+00       1
hk1__033               fixed                  factor    146.9631      7.7600000000e-04      1.4800000000e+02       hk                    1.0000000000e+00      0.0000000000e+00       1
hk1__034               fixed                  factor    370.0252      8.7800000000e-03      1.7500000000e+03       hk                    1.0000000000e+00      0.0000000000e+00       1
hk1__035               fixed                  factor    1.460098      4.4600000000e-03      8.8300000000e+02       hk                    1.0000000000e+00      0.0000000000e+00       1
hk1__036               fixed                  factor    2.980200      7.7600000000e-04      1.4700000000e+02       hk                    1.0000000000e+00      0.0000000000e+00       1
hk1__037               fixed                  factor    5.790390      7.7600000000e-04      1.4700000000e+02       hk                    1.0000000000e+00      0.0000000000e+00       1
hk1__038               fixed                  factor    7.240797      3.1500000000e-03      6.2100000000e+02       hk                    1.0000000000e+00      0.0000000000e+00       1
hk1__039               fixed                  factor    89.40978      7.7600000000e-04      1.4700000000e+02       hk                    1.0000000000e+00      0.0000000000e+00       1
hk1__040               fixed                  factor    65.40703      5.6500000000e-03      1.1200000000e+03       hk                    1.0000000000e+00      0.0000000000e+00       1
hk1__041               fixed                  factor    1.840105      7.4300000000e-03      1.4800000000e+03       hk                    1.0000000000e+00      0.0000000000e+00       1
hk1__042               fixed                  factor   0.2740148      8.2600000000e-03      1.6400000000e+03       hk                    1.0000000000e+00      0.0000000000e+00       1
hk1__043               fixed                  factor    140.9998      3.3100000000e-03      6.4400000000e+02       hk                    1.0000000000e+00      0.0000000000e+00       1
hk1__044               fixed                  factor    5.210353      7.7600000000e-04      1.4700000000e+02       hk                    1.0000000000e+00      0.0000000000e+00       1
hk1__045               fixed                  factor    23.50161      7.7600000000e-04      1.4700000000e+02       hk                    1.0000000000e+00      0.0000000000e+00       1
hk1__046               fixed                  factor    120.0081      7.7600000000e-04      1.4700000000e+02       hk                    1.0000000000e+00      0.0000000000e+00       1
hk1__047               fixed                  factor    174.0191      8.7800000000e-03      1.7500000000e+03       hk                    1.0000000000e+00      0.0000000000e+00       1
hk1__048               fixed                  factor    57.50629      2.1900000000e-03      4.2900000000e+02       hk                    1.0000000000e+00      0.0000000000e+00       1
hk1__049               fixed                  factor    11.30076      7.6300000000e-03      1.5200000000e+03       hk                    1.0000000000e+00      0.0000000000e+00       1
hk1__050               fixed                  factor    14.30097      5.0300000000e-03      9.9700000000e+02       hk                    1.0000000000e+00      0.0000000000e+00       1
hk1__051               fixed                  factor    13.80093      8.7800000000e-03      1.7500000000e+03       hk                    1.0000000000e+00      0.0000000000e+00       1
hk1__052               fixed                  factor   0.3930456      4.5200000000e-03      8.9600000000e+02       hk                    1.0000000000e+00      0.0000000000e+00       1
hk1__053               fixed                  factor    1.519973      8.4200000000e-04      1.6000000000e+02       hk                    1.0000000000e+00      0.0000000000e+00       1
hk1__054               fixed                  factor    17.10088      6.5100000000e-03      1.2900000000e+03       hk                    1.0000000000e+00      0.0000000000e+00       1
hk1__055               fixed                  factor    0.04980253      7.0800000000e-03      1.4100000000e+03       hk                    1.0000000000e+00      0.0000000000e+00       1
hk1__056               fixed                  factor    0.10330      2.5500000000e-03      4.9200000000e+02       hk                    1.0000000000e+00      0.0000000000e+00       1
hk1__057               fixed                  factor    19.70131      7.7600000000e-04      1.4700000000e+02       hk                    1.0000000000e+00      0.0000000000e+00       1
hk1__058               fixed                  factor    4.630292      7.7600000000e-04      1.4700000000e+02       hk                    1.0000000000e+00      0.0000000000e+00       1
hk1__059               fixed                  factor    40.30922      7.7600000000e-04      1.4700000000e+02       hk                    1.0000000000e+00      0.0000000000e+00       1
hk1__060               fixed                  factor    11.50058      7.7600000000e-04      1.4700000000e+02       hk                    1.0000000000e+00      0.0000000000e+00       1
hk1__061               fixed                  factor    195.9935      8.0500000000e-03      1.6000000000e+03       hk                    1.0000000000e+00      0.0000000000e+00       1
hk1__062               fixed                  factor    1269.625      6.3800000000e-03      1.2800000000e+03       hk                    1.0000000000e+00      0.0000000000e+00       1
hk1__063               fixed                  factor    632.9392      8.7800000000e-03      1.7500000000e+03       hk                    1.0000000000e+00      0.0000000000e+00       1
hk1__064               fixed                  factor    44.30064      6.2500000000e-03      1.2400000000e+03       hk                    1.0000000000e+00      0.0000000000e+00       1
hk1__065               fixed                  factor    10.49997      7.7600000000e-04      1.4700000000e+02       hk                    1.0000000000e+00      0.0000000000e+00       1
hk1__066               fixed                  factor    9.380525      4.3300000000e-03      8.5800000000e+02       hk                    1.0000000000e+00      0.0000000000e+00       1
hk1__067               fixed                  factor    138.044      7.0700000000e-03      1.4100000000e+03       hk                    1.0000000000e+00      0.0000000000e+00       1
hk1__068               fixed                  factor    0.590085      7.7600000000e-04      1.4700000000e+02       hk                    1.0000000000e+00      0.0000000000e+00       1
hk1__069               fixed                  factor    2.140042      7.7600000000e-04      1.4700000000e+02       hk                    1.0000000000e+00      0.0000000000e+00       1