BEGIN options
  auxiliary  multiplier
  AUXMULTNAME  multiplier
  BOUNDNAMES
  SAVE_FLOWS
  TS6  FILEIN  mf6-tv_scenario-new_stress.ts
END options
 
BEGIN dimensions
  MAXBOUND  348
END dimensions
 
BEGIN period  1
# layer row col Q(column from ts file) multiplier boundname
  3 40 36  Qtot   0.2      new_l3r40c36
  3 40 37  Qtot   0.3      new_l3r40c37
  3 40 38  Qtot   0.5      new_l3r40c38
END period  1
 
