BEGIN options
  auxiliary  multiplier
  AUXMULTNAME  multiplier
  BOUNDNAMES
  SAVE_FLOWS
  OBS6  FILEIN  mf6-tv_hist-lake_lowell.ghb.obs
END options
 
BEGIN dimensions
  MAXBOUND  33
END dimensions
 
BEGIN period  1
  1 36 20    2521.60000000   8.9373150E+03       0.15694735  lowell
  1 36 21    2521.60000000   8.9373150E+03       0.25796717  lowell
  1 36 22    2521.60000000   8.9373150E+03       0.03678317  lowell
  1 37 19    2521.60000000   8.9373150E+03       0.22430111  lowell
  1 37 20    2521.60000000   8.9373150E+03       0.96538909  lowell
  1 37 21    2521.60000000   8.9373150E+03       0.99932910  lowell
  1 37 22    2521.60000000   8.9373150E+03       0.52424442  lowell
  1 38 19    2521.60000000   8.9373150E+03       0.05462804  lowell
  1 38 20    2521.60000000   8.9373150E+03       0.42214080  lowell
  1 38 21    2521.60000000   8.9373150E+03       0.84285359  lowell
  1 38 22    2521.60000000   8.9373150E+03       0.36075050  lowell
  1 38 23    2521.60000000   8.9373150E+03       0.12194629  lowell
  1 38 24    2521.60000000   8.9373150E+03       0.04793532  lowell
  1 39 21    2521.60000000   8.9373150E+03       0.11841570  lowell
  1 39 22    2521.60000000   8.9373150E+03       0.92087858  lowell
  1 39 23    2521.60000000   8.9373150E+03       0.99877882  lowell
  1 39 24    2521.60000000   8.9373150E+03       0.63573553  lowell
  1 39 25    2521.60000000   8.9373150E+03       0.02033260  lowell
  1 40 21    2521.60000000   8.9373150E+03  8.96676307E-04  lowell
  1 40 22    2521.60000000   8.9373150E+03       0.08946762  lowell
  1 40 23    2521.60000000   8.9373150E+03       0.45526022  lowell
  1 40 24    2521.60000000   8.9373150E+03       0.83249282  lowell
  1 40 25    2521.60000000   8.9373150E+03       0.88146141  lowell
  1 40 26    2521.60000000   8.9373150E+03       0.41597454  lowell
  1 41 24    2521.60000000   8.9373150E+03       0.01251002  lowell
  1 41 25    2521.60000000   8.9373150E+03       0.37466352  lowell
  1 41 26    2521.60000000   8.9373150E+03       0.39536607  lowell
  1 41 27    2521.60000000   8.9373150E+03       0.03492640  lowell
  1 41 28    2521.60000000   8.9373150E+03  7.38914399E-05  lowell
  1 42 26    2521.60000000   8.9373150E+03  9.77976149E-04  lowell
  1 42 27    2521.60000000   8.9373150E+03       0.00179991  lowell
END period  1
 
BEGIN period  2
  1 36 20    2525.00000000   8.9373150E+03       0.17517460  lowell
  1 36 21    2525.00000000   8.9373150E+03       0.29128762  lowell
  1 36 22    2525.00000000   8.9373150E+03       0.05064507  lowell
  1 37 19    2525.00000000   8.9373150E+03       0.24503002  lowell
  1 37 20    2525.00000000   8.9373150E+03       0.96691772  lowell
  1 37 21    2525.00000000   8.9373150E+03       1.00000000  lowell
  1 37 22    2525.00000000   8.9373150E+03       0.57661384  lowell
  1 38 19    2525.00000000   8.9373150E+03       0.06910100  lowell
  1 38 20    2525.00000000   8.9373150E+03       0.44934789  lowell
  1 38 21    2525.00000000   8.9373150E+03       0.90863025  lowell
  1 38 22    2525.00000000   8.9373150E+03       0.38349791  lowell
  1 38 23    2525.00000000   8.9373150E+03       0.13461455  lowell
  1 38 24    2525.00000000   8.9373150E+03       0.04896414  lowell
  1 39 21    2525.00000000   8.9373150E+03       0.14677639  lowell
  1 39 22    2525.00000000   8.9373150E+03       0.98388628  lowell
  1 39 23    2525.00000000   8.9373150E+03       1.00000000  lowell
  1 39 24    2525.00000000   8.9373150E+03       0.64559946  lowell
  1 39 25    2525.00000000   8.9373150E+03       0.02227371  lowell
  1 40 22    2525.00000000   8.9373150E+03       0.11008753  lowell
  1 40 23    2525.00000000   8.9373150E+03       0.49011173  lowell
  1 40 24    2525.00000000   8.9373150E+03       0.87044710  lowell
  1 40 25    2525.00000000   8.9373150E+03       0.89968862  lowell
  1 40 26    2525.00000000   8.9373150E+03       0.46583271  lowell
  1 41 24    2525.00000000   8.9373150E+03       0.01529316  lowell
  1 41 25    2525.00000000   8.9373150E+03       0.45087704  lowell
  1 41 26    2525.00000000   8.9373150E+03       0.50929059  lowell
  1 41 27    2525.00000000   8.9373150E+03       0.00505452  lowell
  1 41 27    2525.00000000   8.9373150E+03       0.01028775  lowell
  1 42 27    2525.00000000   8.9373150E+03       0.00234915  lowell
END period  2
 
BEGIN period  3
  1 36 20    2525.00000000   8.9373150E+03       0.17517460  lowell
  1 36 21    2525.00000000   8.9373150E+03       0.29128762  lowell
  1 36 22    2525.00000000   8.9373150E+03       0.05064507  lowell
  1 37 19    2525.00000000   8.9373150E+03       0.24503002  lowell
  1 37 20    2525.00000000   8.9373150E+03       0.96691772  lowell
  1 37 21    2525.00000000   8.9373150E+03       1.00000000  lowell
  1 37 22    2525.00000000   8.9373150E+03       0.57661384  lowell
  1 38 19    2525.00000000   8.9373150E+03       0.06910100  lowell
  1 38 20    2525.00000000   8.9373150E+03       0.44934789  lowell
  1 38 21    2525.00000000   8.9373150E+03       0.90863025  lowell
  1 38 22    2525.00000000   8.9373150E+03       0.38349791  lowell
  1 38 23    2525.00000000   8.9373150E+03       0.13461455  lowell
  1 38 24    2525.00000000   8.9373150E+03       0.04896414  lowell
  1 39 21    2525.00000000   8.9373150E+03       0.14677639  lowell
  1 39 22    2525.00000000   8.9373150E+03       0.98388628  lowell
  1 39 23    2525.00000000   8.9373150E+03       1.00000000  lowell
  1 39 24    2525.00000000   8.9373150E+03       0.64559946  lowell
  1 39 25    2525.00000000   8.9373150E+03       0.02227371  lowell
  1 40 22    2525.00000000   8.9373150E+03       0.11008753  lowell
  1 40 23    2525.00000000   8.9373150E+03       0.49011173  lowell
  1 40 24    2525.00000000   8.9373150E+03       0.87044710  lowell
  1 40 25    2525.00000000   8.9373150E+03       0.89968862  lowell
  1 40 26    2525.00000000   8.9373150E+03       0.46583271  lowell
  1 41 24    2525.00000000   8.9373150E+03       0.01529316  lowell
  1 41 25    2525.00000000   8.9373150E+03       0.45087704  lowell
  1 41 26    2525.00000000   8.9373150E+03       0.50929059  lowell
  1 41 27    2525.00000000   8.9373150E+03       0.00505452  lowell
  1 41 27    2525.00000000   8.9373150E+03       0.01028775  lowell
  1 42 27    2525.00000000   8.9373150E+03       0.00234915  lowell
END period  3
 
BEGIN period  4
  1 36 20    2528.00000000   8.9373150E+03       0.19091981  lowell
  1 36 21    2528.00000000   8.9373150E+03       0.31588411  lowell
  1 36 22    2528.00000000   8.9373150E+03       0.07494971  lowell
  1 37 19    2528.00000000   8.9373150E+03       0.25640323  lowell
  1 37 20    2528.00000000   8.9373150E+03       0.96778189  lowell
  1 37 21    2528.00000000   8.9373150E+03       1.00000000  lowell
  1 37 22    2528.00000000   8.9373150E+03       0.62413891  lowell
  1 38 19    2528.00000000   8.9373150E+03       0.11504268  lowell
  1 38 20    2528.00000000   8.9373150E+03       0.48348804  lowell
  1 38 21    2528.00000000   8.9373150E+03       0.95588254  lowell
  1 38 22    2528.00000000   8.9373150E+03       0.42350339  lowell
  1 38 23    2528.00000000   8.9373150E+03       0.14910482  lowell
  1 38 24    2528.00000000   8.9373150E+03       0.04999979  lowell
  1 39 21    2528.00000000   8.9373150E+03       0.26262864  lowell
  1 39 22    2528.00000000   8.9373150E+03       0.99999801  lowell
  1 39 23    2528.00000000   8.9373150E+03       1.00000000  lowell
  1 39 24    2528.00000000   8.9373150E+03       0.65776045  lowell
  1 39 25    2528.00000000   8.9373150E+03       0.02744195  lowell
  1 40 21    2528.00000000   8.9373150E+03       0.00339232  lowell
  1 40 22    2528.00000000   8.9373150E+03       0.18818662  lowell
  1 40 23    2528.00000000   8.9373150E+03       0.52986203  lowell
  1 40 24    2528.00000000   8.9373150E+03       0.90327499  lowell
  1 40 25    2528.00000000   8.9373150E+03       0.90723098  lowell
  1 40 26    2528.00000000   8.9373150E+03       0.50600346  lowell
  1 41 24    2528.00000000   8.9373150E+03       0.02952441  lowell
  1 41 25    2528.00000000   8.9373150E+03       0.52402719  lowell
  1 41 26    2528.00000000   8.9373150E+03       0.74335669  lowell
  1 41 27    2528.00000000   8.9373150E+03       0.07383291  lowell
  1 41 27    2528.00000000   8.9373150E+03       0.01798696  lowell
  1 42 27    2528.00000000   8.9373150E+03       0.00602204  lowell
END period  4
 
BEGIN period  5
  1 36 20    2528.00000000   8.9373150E+03       0.19091981  lowell
  1 36 21    2528.00000000   8.9373150E+03       0.31588411  lowell
  1 36 22    2528.00000000   8.9373150E+03       0.07494971  lowell
  1 37 19    2528.00000000   8.9373150E+03       0.25640323  lowell
  1 37 20    2528.00000000   8.9373150E+03       0.96778189  lowell
  1 37 21    2528.00000000   8.9373150E+03       1.00000000  lowell
  1 37 22    2528.00000000   8.9373150E+03       0.62413891  lowell
  1 38 19    2528.00000000   8.9373150E+03       0.11504268  lowell
  1 38 20    2528.00000000   8.9373150E+03       0.48348804  lowell
  1 38 21    2528.00000000   8.9373150E+03       0.95588254  lowell
  1 38 22    2528.00000000   8.9373150E+03       0.42350339  lowell
  1 38 23    2528.00000000   8.9373150E+03       0.14910482  lowell
  1 38 24    2528.00000000   8.9373150E+03       0.04999979  lowell
  1 39 21    2528.00000000   8.9373150E+03       0.26262864  lowell
  1 39 22    2528.00000000   8.9373150E+03       0.99999801  lowell
  1 39 23    2528.00000000   8.9373150E+03       1.00000000  lowell
  1 39 24    2528.00000000   8.9373150E+03       0.65776045  lowell
  1 39 25    2528.00000000   8.9373150E+03       0.02744195  lowell
  1 40 21    2528.00000000   8.9373150E+03       0.00339232  lowell
  1 40 22    2528.00000000   8.9373150E+03       0.18818662  lowell
  1 40 23    2528.00000000   8.9373150E+03       0.52986203  lowell
  1 40 24    2528.00000000   8.9373150E+03       0.90327499  lowell
  1 40 25    2528.00000000   8.9373150E+03       0.90723098  lowell
  1 40 26    2528.00000000   8.9373150E+03       0.50600346  lowell
  1 41 24    2528.00000000   8.9373150E+03       0.02952441  lowell
  1 41 25    2528.00000000   8.9373150E+03       0.52402719  lowell
  1 41 26    2528.00000000   8.9373150E+03       0.74335669  lowell
  1 41 27    2528.00000000   8.9373150E+03       0.07383291  lowell
  1 41 27    2528.00000000   8.9373150E+03       0.01798696  lowell
  1 42 27    2528.00000000   8.9373150E+03       0.00602204  lowell
END period  5
 
BEGIN period  6
  1 36 20    2529.00000000   8.9373150E+03       0.19550185  lowell
  1 36 21    2529.00000000   8.9373150E+03       0.32254717  lowell
  1 36 22    2529.00000000   8.9373150E+03       0.07765166  lowell
  1 37 19    2529.00000000   8.9373150E+03       0.25834246  lowell
  1 37 20    2529.00000000   8.9373150E+03       0.96807589  lowell
  1 37 21    2529.00000000   8.9373150E+03       1.00000000  lowell
  1 37 22    2529.00000000   8.9373150E+03       0.63199591  lowell
  1 38 19    2529.00000000   8.9373150E+03       0.12149028  lowell
  1 38 20    2529.00000000   8.9373150E+03       0.49612564  lowell
  1 38 21    2529.00000000   8.9373150E+03       0.96803830  lowell
  1 38 22    2529.00000000   8.9373150E+03       0.43098862  lowell
  1 38 23    2529.00000000   8.9373150E+03       0.15402839  lowell
  1 38 24    2529.00000000   8.9373150E+03       0.05025691  lowell
  1 39 21    2529.00000000   8.9373150E+03       0.30907820  lowell
  1 39 22    2529.00000000   8.9373150E+03       1.00000000  lowell
  1 39 23    2529.00000000   8.9373150E+03       1.00000000  lowell
  1 39 24    2529.00000000   8.9373150E+03       0.66103833  lowell
  1 39 25    2529.00000000   8.9373150E+03       0.02871117  lowell
  1 40 21    2529.00000000   8.9373150E+03       0.00724667  lowell
  1 40 22    2529.00000000   8.9373150E+03       0.22144360  lowell
  1 40 23    2529.00000000   8.9373150E+03       0.54958625  lowell
  1 40 24    2529.00000000   8.9373150E+03       0.91597817  lowell
  1 40 25    2529.00000000   8.9373150E+03       0.90892605  lowell
  1 40 26    2529.00000000   8.9373150E+03       0.52091512  lowell
  1 41 24    2529.00000000   8.9373150E+03       0.03516725  lowell
  1 41 25    2529.00000000   8.9373150E+03       0.54263948  lowell
  1 41 26    2529.00000000   8.9373150E+03       0.81930753  lowell
  1 41 27    2529.00000000   8.9373150E+03       0.00970483  lowell
  1 41 27    2529.00000000   8.9373150E+03       0.18692555  lowell
  1 42 26    2529.00000000   8.9373150E+03       0.00545488  lowell
  1 42 27    2529.00000000   8.9373150E+03       0.00673988  lowell
END period  6
 
BEGIN period  7
  1 36 20    2526.00000000   8.9373150E+03       0.18093512  lowell
  1 36 21    2526.00000000   8.9373150E+03       0.30100508  lowell
  1 36 22    2526.00000000   8.9373150E+03       0.05904403  lowell
  1 37 19    2526.00000000   8.9373150E+03       0.24920265  lowell
  1 37 20    2526.00000000   8.9373150E+03       0.96720219  lowell
  1 37 21    2526.00000000   8.9373150E+03       1.00000000  lowell
  1 37 22    2526.00000000   8.9373150E+03       0.59409278  lowell
  1 38 19    2526.00000000   8.9373150E+03       0.08392445  lowell
  1 38 20    2526.00000000   8.9373150E+03       0.46055755  lowell
  1 38 21    2526.00000000   8.9373150E+03       0.92605369  lowell
  1 38 22    2526.00000000   8.9373150E+03       0.40011041  lowell
  1 38 23    2526.00000000   8.9373150E+03       0.14066830  lowell
  1 38 24    2526.00000000   8.9373150E+03       0.04931756  lowell
  1 39 21    2526.00000000   8.9373150E+03       0.18343191  lowell
  1 39 22    2526.00000000   8.9373150E+03       0.99232348  lowell
  1 39 23    2526.00000000   8.9373150E+03       1.00000000  lowell
  1 39 24    2526.00000000   8.9373150E+03       0.65037154  lowell
  1 39 25    2526.00000000   8.9373150E+03       0.02477765  lowell
  1 40 22    2526.00000000   8.9373150E+03       0.13296840  lowell
  1 40 23    2526.00000000   8.9373150E+03       0.50297272  lowell
  1 40 24    2526.00000000   8.9373150E+03       0.88139156  lowell
  1 40 25    2526.00000000   8.9373150E+03       0.90265403  lowell
  1 40 26    2526.00000000   8.9373150E+03       0.48156150  lowell
  1 41 24    2526.00000000   8.9373150E+03       0.01934100  lowell
  1 41 25    2526.00000000   8.9373150E+03       0.47776298  lowell
  1 41 26    2526.00000000   8.9373150E+03       0.60039346  lowell
  1 41 27    2526.00000000   8.9373150E+03       0.02068130  lowell
  1 42 27    2526.00000000   8.9373150E+03       0.00266270  lowell
END period  7
 
BEGIN period  8
  1 36 20    2520.00000000   8.9373150E+03       0.13858737  lowell
  1 36 21    2520.00000000   8.9373150E+03       0.22344302  lowell
  1 36 22    2520.00000000   8.9373150E+03       0.00727414  lowell
  1 37 19    2520.00000000   8.9373150E+03       0.21188995  lowell
  1 37 20    2520.00000000   8.9373150E+03       0.96555133  lowell
  1 37 21    2520.00000000   8.9373150E+03       1.00000000  lowell
  1 37 22    2520.00000000   8.9373150E+03       0.46965390  lowell
  1 38 19    2520.00000000   8.9373150E+03       0.02019794  lowell
  1 38 20    2520.00000000   8.9373150E+03       0.39475590  lowell
  1 38 21    2520.00000000   8.9373150E+03       0.79035707  lowell
  1 38 22    2520.00000000   8.9373150E+03       0.33871837  lowell
  1 38 23    2520.00000000   8.9373150E+03       0.10649672  lowell
  1 38 24    2520.00000000   8.9373150E+03       0.04695826  lowell
  1 39 21    2520.00000000   8.9373150E+03       0.02972412  lowell
  1 39 22    2520.00000000   8.9373150E+03       0.89704915  lowell
  1 39 23    2520.00000000   8.9373150E+03       0.99992910  lowell
  1 39 24    2520.00000000   8.9373150E+03       0.62356016  lowell
  1 39 25    2520.00000000   8.9373150E+03       0.01675149  lowell
  1 40 22    2520.00000000   8.9373150E+03       0.03201766  lowell
  1 40 23    2520.00000000   8.9373150E+03       0.42448398  lowell
  1 40 24    2520.00000000   8.9373150E+03       0.79938929  lowell
  1 40 25    2520.00000000   8.9373150E+03       0.88598781  lowell
  1 40 26    2520.00000000   8.9373150E+03       0.40554576  lowell
  1 41 24    2520.00000000   8.9373150E+03       0.00234207  lowell
  1 41 25    2520.00000000   8.9373150E+03       0.29945209  lowell
  1 41 26    2520.00000000   8.9373150E+03       0.00528908  lowell
  1 41 26    2520.00000000   8.9373150E+03       0.19882788  lowell
  1 41 27    2520.00000000   8.9373150E+03  6.80373339E-05  lowell
END period  8
 
BEGIN period  9
  1 36 20    2515.00000000   8.9373150E+03       0.09163241  lowell
  1 36 21    2515.00000000   8.9373150E+03       0.14460001  lowell
  1 37 19    2515.00000000   8.9373150E+03       0.13546502  lowell
  1 37 20    2515.00000000   8.9373150E+03       0.96284301  lowell
  1 37 21    2515.00000000   8.9373150E+03       0.99999273  lowell
  1 37 22    2515.00000000   8.9373150E+03       0.34116263  lowell
  1 38 19    2515.00000000   8.9373150E+03  1.08715745E-04  lowell
  1 38 20    2515.00000000   8.9373150E+03       0.32375847  lowell
  1 38 21    2515.00000000   8.9373150E+03       0.62222175  lowell
  1 38 22    2515.00000000   8.9373150E+03       0.27336254  lowell
  1 38 23    2515.00000000   8.9373150E+03       0.07707933  lowell
  1 38 24    2515.00000000   8.9373150E+03       0.04402589  lowell
  1 39 22    2515.00000000   8.9373150E+03       0.68951699  lowell
  1 39 23    2515.00000000   8.9373150E+03       0.99508631  lowell
  1 39 24    2515.00000000   8.9373150E+03       0.60100881  lowell
  1 39 25    2515.00000000   8.9373150E+03       0.01244932  lowell
  1 40 22    2515.00000000   8.9373150E+03  6.98626126E-04  lowell
  1 40 23    2515.00000000   8.9373150E+03       0.31073827  lowell
  1 40 24    2515.00000000   8.9373150E+03       0.69063306  lowell
  1 40 25    2515.00000000   8.9373150E+03       0.85337391  lowell
  1 40 26    2515.00000000   8.9373150E+03       0.15777348  lowell
  1 41 25    2515.00000000   8.9373150E+03       0.05863563  lowell
END period  9
 
BEGIN period  10
  1 36 20    2518.00000000   8.9373150E+03       0.12086344  lowell
  1 36 21    2518.00000000   8.9373150E+03       0.19670128  lowell
  1 36 22    2518.00000000   8.9373150E+03       0.00256949  lowell
  1 37 19    2518.00000000   8.9373150E+03       0.18182010  lowell
  1 37 20    2518.00000000   8.9373150E+03       0.96451413  lowell
  1 37 21    2518.00000000   8.9373150E+03       1.00000000  lowell
  1 37 22    2518.00000000   8.9373150E+03       0.41926499  lowell
  1 38 19    2518.00000000   8.9373150E+03       0.00202372  lowell
  1 38 20    2518.00000000   8.9373150E+03       0.36841438  lowell
  1 38 21    2518.00000000   8.9373150E+03       0.73150735  lowell
  1 38 22    2518.00000000   8.9373150E+03       0.32154745  lowell
  1 38 23    2518.00000000   8.9373150E+03       0.09527825  lowell
  1 38 24    2518.00000000   8.9373150E+03       0.04581304  lowell
  1 39 21    2518.00000000   8.9373150E+03       0.00720590  lowell
  1 39 22    2518.00000000   8.9373150E+03       0.83473548  lowell
  1 39 23    2518.00000000   8.9373150E+03       0.99905575  lowell
  1 39 24    2518.00000000   8.9373150E+03       0.61575131  lowell
  1 39 25    2518.00000000   8.9373150E+03       0.01521116  lowell
  1 40 22    2518.00000000   8.9373150E+03       0.01576010  lowell
  1 40 23    2518.00000000   8.9373150E+03       0.37689948  lowell
  1 40 24    2518.00000000   8.9373150E+03       0.76166186  lowell
  1 40 25    2518.00000000   8.9373150E+03       0.88247875  lowell
  1 40 26    2518.00000000   8.9373150E+03       0.36661448  lowell
  1 41 24    2518.00000000   8.9373150E+03  1.40327157E-04  lowell
  1 41 25    2518.00000000   8.9373150E+03       0.21669728  lowell
  1 41 26    2518.00000000   8.9373150E+03       0.07873574  lowell
END period  10
 
BEGIN period  11
  1 36 20    2524.00000000   8.9373150E+03       0.16934904  lowell
  1 36 21    2524.00000000   8.9373150E+03       0.27945714  lowell
  1 36 22    2524.00000000   8.9373150E+03       0.04453989  lowell
  1 37 19    2524.00000000   8.9373150E+03       0.24203071  lowell
  1 37 20    2524.00000000   8.9373150E+03       0.96663686  lowell
  1 37 21    2524.00000000   8.9373150E+03       1.00000000  lowell
  1 37 22    2524.00000000   8.9373150E+03       0.55546236  lowell
  1 38 19    2524.00000000   8.9373150E+03       0.05883484  lowell
  1 38 20    2524.00000000   8.9373150E+03       0.43958134  lowell
  1 38 21    2524.00000000   8.9373150E+03       0.88694135  lowell
  1 38 22    2524.00000000   8.9373150E+03       0.37183248  lowell
  1 38 23    2524.00000000   8.9373150E+03       0.12720656  lowell
  1 38 24    2524.00000000   8.9373150E+03       0.04858671  lowell
  1 39 21    2524.00000000   8.9373150E+03       0.11469950  lowell
  1 39 22    2524.00000000   8.9373150E+03       0.97089495  lowell
  1 39 23    2524.00000000   8.9373150E+03       1.00000000  lowell
  1 39 24    2524.00000000   8.9373150E+03       0.64018083  lowell
  1 39 25    2524.00000000   8.9373150E+03       0.02074246  lowell
  1 40 22    2524.00000000   8.9373150E+03       0.08647902  lowell
  1 40 23    2524.00000000   8.9373150E+03       0.47694720  lowell
  1 40 24    2524.00000000   8.9373150E+03       0.85790837  lowell
  1 40 25    2524.00000000   8.9373150E+03       0.89538779  lowell
  1 40 26    2524.00000000   8.9373150E+03       0.45529877  lowell
  1 41 24    2524.00000000   8.9373150E+03       0.01192738  lowell
  1 41 25    2524.00000000   8.9373150E+03       0.41707582  lowell
  1 41 26    2524.00000000   8.9373150E+03       0.39847142  lowell
  1 41 26    2524.00000000   8.9373150E+03       0.00452873  lowell
  1 41 27    2524.00000000   8.9373150E+03       0.00445916  lowell
  1 41 27    2524.00000000   8.9373150E+03  3.41923769E-04  lowell
  1 41 27    2524.00000000   8.9373150E+03       0.00924831  lowell
  1 42 27    2524.00000000   8.9373150E+03  9.31448869E-04  lowell
END period  11
 
BEGIN period  12
  1 36 20    2524.00000000   8.9373150E+03       0.16934904  lowell
  1 36 21    2524.00000000   8.9373150E+03       0.27945714  lowell
  1 36 22    2524.00000000   8.9373150E+03       0.04453989  lowell
  1 37 19    2524.00000000   8.9373150E+03       0.24203071  lowell
  1 37 20    2524.00000000   8.9373150E+03       0.96663686  lowell
  1 37 21    2524.00000000   8.9373150E+03       1.00000000  lowell
  1 37 22    2524.00000000   8.9373150E+03       0.55546236  lowell
  1 38 19    2524.00000000   8.9373150E+03       0.05883484  lowell
  1 38 20    2524.00000000   8.9373150E+03       0.43958134  lowell
  1 38 21    2524.00000000   8.9373150E+03       0.88694135  lowell
  1 38 22    2524.00000000   8.9373150E+03       0.37183248  lowell
  1 38 23    2524.00000000   8.9373150E+03       0.12720656  lowell
  1 38 24    2524.00000000   8.9373150E+03       0.04858671  lowell
  1 39 21    2524.00000000   8.9373150E+03       0.11469950  lowell
  1 39 22    2524.00000000   8.9373150E+03       0.97089495  lowell
  1 39 23    2524.00000000   8.9373150E+03       1.00000000  lowell
  1 39 24    2524.00000000   8.9373150E+03       0.64018083  lowell
  1 39 25    2524.00000000   8.9373150E+03       0.02074246  lowell
  1 40 22    2524.00000000   8.9373150E+03       0.08647902  lowell
  1 40 23    2524.00000000   8.9373150E+03       0.47694720  lowell
  1 40 24    2524.00000000   8.9373150E+03       0.85790837  lowell
  1 40 25    2524.00000000   8.9373150E+03       0.89538779  lowell
  1 40 26    2524.00000000   8.9373150E+03       0.45529877  lowell
  1 41 24    2524.00000000   8.9373150E+03       0.01192738  lowell
  1 41 25    2524.00000000   8.9373150E+03       0.41707582  lowell
  1 41 26    2524.00000000   8.9373150E+03       0.39847142  lowell
  1 41 26    2524.00000000   8.9373150E+03       0.00452873  lowell
  1 41 27    2524.00000000   8.9373150E+03       0.00924831  lowell
  1 41 27    2524.00000000   8.9373150E+03  3.41923769E-04  lowell
  1 41 27    2524.00000000   8.9373150E+03       0.00445916  lowell
  1 42 27    2524.00000000   8.9373150E+03  9.31448869E-04  lowell
END period  12
 
BEGIN period  13
  1 36 20    2524.00000000   8.9373150E+03       0.16934904  lowell
  1 36 21    2524.00000000   8.9373150E+03       0.27945714  lowell
  1 36 22    2524.00000000   8.9373150E+03       0.04453989  lowell
  1 37 19    2524.00000000   8.9373150E+03       0.24203071  lowell
  1 37 20    2524.00000000   8.9373150E+03       0.96663686  lowell
  1 37 21    2524.00000000   8.9373150E+03       1.00000000  lowell
  1 37 22    2524.00000000   8.9373150E+03       0.55546236  lowell
  1 38 19    2524.00000000   8.9373150E+03       0.05883484  lowell
  1 38 20    2524.00000000   8.9373150E+03       0.43958134  lowell
  1 38 21    2524.00000000   8.9373150E+03       0.88694135  lowell
  1 38 22    2524.00000000   8.9373150E+03       0.37183248  lowell
  1 38 23    2524.00000000   8.9373150E+03       0.12720656  lowell
  1 38 24    2524.00000000   8.9373150E+03       0.04858671  lowell
  1 39 21    2524.00000000   8.9373150E+03       0.11469950  lowell
  1 39 22    2524.00000000   8.9373150E+03       0.97089495  lowell
  1 39 23    2524.00000000   8.9373150E+03       1.00000000  lowell
  1 39 24    2524.00000000   8.9373150E+03       0.64018083  lowell
  1 39 25    2524.00000000   8.9373150E+03       0.02074246  lowell
  1 40 22    2524.00000000   8.9373150E+03       0.08647902  lowell
  1 40 23    2524.00000000   8.9373150E+03       0.47694720  lowell
  1 40 24    2524.00000000   8.9373150E+03       0.85790837  lowell
  1 40 25    2524.00000000   8.9373150E+03       0.89538779  lowell
  1 40 26    2524.00000000   8.9373150E+03       0.45529877  lowell
  1 41 24    2524.00000000   8.9373150E+03       0.01192738  lowell
  1 41 25    2524.00000000   8.9373150E+03       0.41707582  lowell
  1 41 26    2524.00000000   8.9373150E+03       0.00452873  lowell
  1 41 26    2524.00000000   8.9373150E+03       0.39847142  lowell
  1 41 27    2524.00000000   8.9373150E+03       0.00445916  lowell
  1 41 27    2524.00000000   8.9373150E+03       0.00924831  lowell
  1 41 27    2524.00000000   8.9373150E+03  3.41923769E-04  lowell
  1 42 27    2524.00000000   8.9373150E+03  9.31448869E-04  lowell
END period  13
 
BEGIN period  14
  1 36 20    2524.00000000   8.9373150E+03       0.16934904  lowell
  1 36 21    2524.00000000   8.9373150E+03       0.27945714  lowell
  1 36 22    2524.00000000   8.9373150E+03       0.04453989  lowell
  1 37 19    2524.00000000   8.9373150E+03       0.24203071  lowell
  1 37 20    2524.00000000   8.9373150E+03       0.96663686  lowell
  1 37 21    2524.00000000   8.9373150E+03       1.00000000  lowell
  1 37 22    2524.00000000   8.9373150E+03       0.55546236  lowell
  1 38 19    2524.00000000   8.9373150E+03       0.05883484  lowell
  1 38 20    2524.00000000   8.9373150E+03       0.43958134  lowell
  1 38 21    2524.00000000   8.9373150E+03       0.88694135  lowell
  1 38 22    2524.00000000   8.9373150E+03       0.37183248  lowell
  1 38 23    2524.00000000   8.9373150E+03       0.12720656  lowell
  1 38 24    2524.00000000   8.9373150E+03       0.04858671  lowell
  1 39 21    2524.00000000   8.9373150E+03       0.11469950  lowell
  1 39 22    2524.00000000   8.9373150E+03       0.97089495  lowell
  1 39 23    2524.00000000   8.9373150E+03       1.00000000  lowell
  1 39 24    2524.00000000   8.9373150E+03       0.64018083  lowell
  1 39 25    2524.00000000   8.9373150E+03       0.02074246  lowell
  1 40 22    2524.00000000   8.9373150E+03       0.08647902  lowell
  1 40 23    2524.00000000   8.9373150E+03       0.47694720  lowell
  1 40 24    2524.00000000   8.9373150E+03       0.85790837  lowell
  1 40 25    2524.00000000   8.9373150E+03       0.89538779  lowell
  1 40 26    2524.00000000   8.9373150E+03       0.45529877  lowell
  1 41 24    2524.00000000   8.9373150E+03       0.01192738  lowell
  1 41 25    2524.00000000   8.9373150E+03       0.41707582  lowell
  1 41 26    2524.00000000   8.9373150E+03       0.39847142  lowell
  1 41 26    2524.00000000   8.9373150E+03       0.00452873  lowell
  1 41 27    2524.00000000   8.9373150E+03       0.00924831  lowell
  1 41 27    2524.00000000   8.9373150E+03  3.41923769E-04  lowell
  1 41 27    2524.00000000   8.9373150E+03       0.00445916  lowell
  1 42 27    2524.00000000   8.9373150E+03  9.31448869E-04  lowell
END period  14
 
BEGIN period  15
  1 36 20    2525.00000000   8.9373150E+03       0.17517460  lowell
  1 36 21    2525.00000000   8.9373150E+03       0.29128762  lowell
  1 36 22    2525.00000000   8.9373150E+03       0.05064507  lowell
  1 37 19    2525.00000000   8.9373150E+03       0.24503002  lowell
  1 37 20    2525.00000000   8.9373150E+03       0.96691772  lowell
  1 37 21    2525.00000000   8.9373150E+03       1.00000000  lowell
  1 37 22    2525.00000000   8.9373150E+03       0.57661384  lowell
  1 38 19    2525.00000000   8.9373150E+03       0.06910100  lowell
  1 38 20    2525.00000000   8.9373150E+03       0.44934789  lowell
  1 38 21    2525.00000000   8.9373150E+03       0.90863025  lowell
  1 38 22    2525.00000000   8.9373150E+03       0.38349791  lowell
  1 38 23    2525.00000000   8.9373150E+03       0.13461455  lowell
  1 38 24    2525.00000000   8.9373150E+03       0.04896414  lowell
  1 39 21    2525.00000000   8.9373150E+03       0.14677639  lowell
  1 39 22    2525.00000000   8.9373150E+03       0.98388628  lowell
  1 39 23    2525.00000000   8.9373150E+03       1.00000000  lowell
  1 39 24    2525.00000000   8.9373150E+03       0.64559946  lowell
  1 39 25    2525.00000000   8.9373150E+03       0.02227371  lowell
  1 40 22    2525.00000000   8.9373150E+03       0.11008753  lowell
  1 40 23    2525.00000000   8.9373150E+03       0.49011173  lowell
  1 40 24    2525.00000000   8.9373150E+03       0.87044710  lowell
  1 40 25    2525.00000000   8.9373150E+03       0.89968862  lowell
  1 40 26    2525.00000000   8.9373150E+03       0.46583271  lowell