# File generated by Flopy version 3.3.2 on 05/05/2022 at 16:49:47.
BEGIN options
  SAVE_FLOWS
  STORAGECOEFFICIENT
END options

BEGIN griddata
  iconvert
    CONSTANT  0
  ss  LAYERED
    OPEN/CLOSE  'mf6-tv_scenario-ss1.ref'  FACTOR  1.0
    OPEN/CLOSE  'mf6-tv_scenario-ss2.ref'  FACTOR  1.0
    OPEN/CLOSE  'mf6-tv_scenario-ss3.ref'  FACTOR  1.0
    OPEN/CLOSE  'mf6-tv_scenario-ss4.ref'  FACTOR  1.0
    OPEN/CLOSE  'mf6-tv_scenario-ss5.ref'  FACTOR  1.0
    OPEN/CLOSE  'mf6-tv_scenario-ss6.ref'  FACTOR  1.0
  sy
    CONSTANT       0.15000000
END griddata

BEGIN period  1
  TRANSIENT
END period  1

BEGIN period  2
  TRANSIENT
END period  2

BEGIN period  3
  TRANSIENT
END period  3

BEGIN period  4
  TRANSIENT
END period  4

BEGIN period  5
  TRANSIENT
END period  5

BEGIN period  6
  TRANSIENT
END period  6

BEGIN period  7
  TRANSIENT
END period  7

BEGIN period  8
  TRANSIENT
END period  8

BEGIN period  9
  TRANSIENT
END period  9

BEGIN period  10
  TRANSIENT
END period  10

BEGIN period  11
  TRANSIENT
END period  11

BEGIN period  12
  TRANSIENT
END period  12

BEGIN period  13
  TRANSIENT
END period  13

BEGIN period  14
  TRANSIENT
END period  14

BEGIN period  15
  TRANSIENT
END period  15

BEGIN period  16
  TRANSIENT
END period  16

BEGIN period  17
  TRANSIENT
END period  17

BEGIN period  18
  TRANSIENT
END period  18

BEGIN period  19
  TRANSIENT
END period  19

BEGIN period  20
  TRANSIENT
END period  20

BEGIN period  21
  TRANSIENT
END period  21

BEGIN period  22
  TRANSIENT
END period  22

BEGIN period  23
  TRANSIENT
END period  23

BEGIN period  24
  TRANSIENT
END period  24

BEGIN period  25
  TRANSIENT
END period  25

BEGIN period  26
  TRANSIENT
END period  26

BEGIN period  27
  TRANSIENT
END period  27

BEGIN period  28
  TRANSIENT
END period  28

BEGIN period  29
  TRANSIENT
END period  29

BEGIN period  30
  TRANSIENT
END period  30

BEGIN period  31
  TRANSIENT
END period  31

BEGIN period  32
  TRANSIENT
END period  32

BEGIN period  33
  TRANSIENT
END period  33

BEGIN period  34
  TRANSIENT
END period  34

BEGIN period  35
  TRANSIENT
END period  35

BEGIN period  36
  TRANSIENT
END period  36

BEGIN period  37
  TRANSIENT
END period  37

BEGIN period  38
  TRANSIENT
END period  38

BEGIN period  39
  TRANSIENT
END period  39

BEGIN period  40
  TRANSIENT
END period  40

BEGIN period  41
  TRANSIENT
END period  41

BEGIN period  42
  TRANSIENT
END period  42

BEGIN period  43
  TRANSIENT
END period  43

BEGIN period  44
  TRANSIENT
END period  44

BEGIN period  45
  TRANSIENT
END period  45

BEGIN period  46
  TRANSIENT
END period  46

BEGIN period  47
  TRANSIENT
END period  47

BEGIN period  48
  TRANSIENT
END period  48

BEGIN period  49
  TRANSIENT
END period  49

BEGIN period  50
  TRANSIENT
END period  50

BEGIN period  51
  TRANSIENT
END period  51

BEGIN period  52
  TRANSIENT
END period  52

BEGIN period  53
  TRANSIENT
END period  53

BEGIN period  54
  TRANSIENT
END period  54

BEGIN period  55
  TRANSIENT
END period  55

BEGIN period  56
  TRANSIENT
END period  56

BEGIN period  57
  TRANSIENT
END period  57

BEGIN period  58
  TRANSIENT
END period  58

BEGIN period  59
  TRANSIENT
END period  59

BEGIN period  60
  TRANSIENT
END period  60

BEGIN period  61
  TRANSIENT
END period  61

BEGIN period  62
  TRANSIENT
END period  62

BEGIN period  63
  TRANSIENT
END period  63

BEGIN period  64
  TRANSIENT
END period  64

BEGIN period  65
  TRANSIENT
END period  65

BEGIN period  66
  TRANSIENT
END period  66

BEGIN period  67
  TRANSIENT
END period  67

BEGIN period  68
  TRANSIENT
END period  68

BEGIN period  69
  TRANSIENT
END period  69

BEGIN period  70
  TRANSIENT
END period  70

BEGIN period  71
  TRANSIENT
END period  71

BEGIN period  72
  TRANSIENT
END period  72

BEGIN period  73
  TRANSIENT
END period  73

BEGIN period  74
  TRANSIENT
END period  74

BEGIN period  75
  TRANSIENT
END period  75

BEGIN period  76
  TRANSIENT
END period  76

BEGIN period  77
  TRANSIENT
END period  77

BEGIN period  78
  TRANSIENT
END period  78

BEGIN period  79
  TRANSIENT
END period  79

BEGIN period  80
  TRANSIENT
END period  80

BEGIN period  81
  TRANSIENT
END period  81

BEGIN period  82
  TRANSIENT
END period  82

BEGIN period  83
  TRANSIENT
END period  83

BEGIN period  84
  TRANSIENT
END period  84

BEGIN period  85
  TRANSIENT
END period  85

BEGIN period  86
  TRANSIENT
END period  86

BEGIN period  87
  TRANSIENT
END period  87

BEGIN period  88
  TRANSIENT
END period  88

BEGIN period  89
  TRANSIENT
END period  89

BEGIN period  90
  TRANSIENT
END period  90

BEGIN period  91
  TRANSIENT
END period  91

BEGIN period  92
  TRANSIENT
END period  92

BEGIN period  93
  TRANSIENT
END period  93

BEGIN period  94
  TRANSIENT
END period  94

BEGIN period  95
  TRANSIENT
END period  95

BEGIN period  96
  TRANSIENT
END period  96

BEGIN period  97
  TRANSIENT
END period  97

BEGIN period  98
  TRANSIENT
END period  98

BEGIN period  99
  TRANSIENT
END period  99

BEGIN period  100
  TRANSIENT
END period  100

BEGIN period  101
  TRANSIENT
END period  101

BEGIN period  102
  TRANSIENT
END period  102

BEGIN period  103
  TRANSIENT
END period  103

BEGIN period  104
  TRANSIENT
END period  104

BEGIN period  105
  TRANSIENT
END period  105

BEGIN period  106
  TRANSIENT
END period  106

BEGIN period  107
  TRANSIENT
END period  107

BEGIN period  108
  TRANSIENT
END period  108

BEGIN period  109
  TRANSIENT
END period  109

BEGIN period  110
  TRANSIENT
END period  110

BEGIN period  111
  TRANSIENT
END period  111

BEGIN period  112
  TRANSIENT
END period  112

BEGIN period  113
  TRANSIENT
END period  113

BEGIN period  114
  TRANSIENT
END period  114

BEGIN period  115
  TRANSIENT
END period  115

BEGIN period  116
  TRANSIENT
END period  116

BEGIN period  117
  TRANSIENT
END period  117

BEGIN period  118
  TRANSIENT
END period  118

BEGIN period  119
  TRANSIENT
END period  119

BEGIN period  120
  TRANSIENT
END period  120