# File generated by Flopy version 3.3.2 on 05/05/2022 at 16:48:41.
BEGIN options
  TIME_UNITS  days
  START_DATE_TIME  2025-01-01t00:00:00
END options

BEGIN dimensions
  NPER  
END dimensions

BEGIN perioddata

END perioddata

