# File generated by Flopy version 3.3.2 on 05/05/2022 at 16:49:47.
BEGIN options
  SAVE_FLOWS
  STORAGECOEFFICIENT
END options

BEGIN griddata
  iconvert
    CONSTANT  0
  ss  LAYERED
    OPEN/CLOSE  'mf6-tv_hist-ss1.ref'  FACTOR  1.0
    OPEN/CLOSE  'mf6-tv_hist-ss2.ref'  FACTOR  1.0
    OPEN/CLOSE  'mf6-tv_hist-ss3.ref'  FACTOR  1.0
    OPEN/CLOSE  'mf6-tv_hist-ss4.ref'  FACTOR  1.0
    OPEN/CLOSE  'mf6-tv_hist-ss5.ref'  FACTOR  1.0
    OPEN/CLOSE  'mf6-tv_hist-ss6.ref'  FACTOR  1.0
  sy
    CONSTANT       0.15000000
END griddata

BEGIN period  1
  TRANSIENT
END period  1

