# File generated by Flopy version 3.3.2 on 05/05/2022 at 16:49:22.
BEGIN options
  auxiliary  multiplier
  AUXMULTNAME  multiplier
  BOUNDNAMES
  SAVE_FLOWS
  TS6  FILEIN  mf6-tv_scenario-infiltration_rates-semi.ts
END options

BEGIN dimensions
  MAXBOUND  2211
END dimensions

BEGIN period  1
  1 5 9  infl_sem97       0.16016364  infl_sem97
  1 5 10  infl_sem94       0.09519474  infl_sem94
  1 5 10  infl_sem97       0.06186490  infl_sem97
  1 5 11  infl_sem94       0.01561970  infl_sem94
  1 5 12  infl_sem94       0.03661880  infl_sem94
  1 5 13  infl_sem94       0.01514814  infl_sem94
  1 6 9  infl_sem97       0.00129132  infl_sem97
  1 6 10  infl_sem94       0.01109400  infl_sem94
  1 6 10  infl_sem97       0.04638609  infl_sem97
  1 6 11  infl_sem94       0.14115252  infl_sem94
  1 6 11  infl_sem97       0.01651258  infl_sem97
  1 6 12  infl_sem94       0.04132466  infl_sem94
  1 6 12  infl_sem97  8.44561726E-04  infl_sem97
  1 6 13  infl_sem94       0.00162052  infl_sem94
  1 6 13  infl_sem97  3.39816437E-05  infl_sem97
  1 6 14  infl_sem35       1.00000000  infl_sem35
  1 6 14  infl_sem94       0.01080162  infl_sem94
  1 7 9  infl_sem97  1.65723983E-05  infl_sem97
  1 7 10  infl_sem97       0.04188621  infl_sem97
  1 7 11  infl_sem97       0.02593477  infl_sem97
  1 7 12  infl_sem94  5.32541861E-05  infl_sem94
  1 7 12  infl_sem97       0.01069824  infl_sem97
  1 7 13  infl_sem94  4.50817867E-04  infl_sem94
  1 7 13  infl_sem97       0.00957050  infl_sem97
  1 7 14  infl_sem94       0.00842571  infl_sem94
  1 7 14  infl_sem97       0.00163835  infl_sem97
  1 7 15  infl_sem94       0.00308899  infl_sem94
  1 7 15  infl_sem95       0.00355086  infl_sem95
  1 7 15  infl_sem97  6.48000512E-05  infl_sem97
  1 8 9  infl_sem97       0.00205029  infl_sem97
  1 8 10  infl_sem97       0.01461219  infl_sem97
  1 8 11  infl_sem97       0.01358283  infl_sem97
  1 8 12  infl_sem97       0.00672604  infl_sem97
  1 8 13  infl_sem97       0.00871476  infl_sem97
  1 8 14  infl_sem97       0.00300468  infl_sem97
  1 8 15  infl_sem94  2.56903456E-04  infl_sem94
  1 8 15  infl_sem97       0.00120606  infl_sem97
  1 8 16  infl_sem94       0.01404123  infl_sem94
  1 8 16  infl_sem97  5.48708278E-04  infl_sem97
  1 8 17  infl_sem94       0.00326422  infl_sem94
  1 9 9  infl_sem97  7.49398426E-04  infl_sem97
  1 9 10  infl_sem97       0.01213097  infl_sem97
  1 9 11  infl_sem97       0.00336848  infl_sem97
  1 9 12  infl_sem97       0.00400355  infl_sem97
  1 9 13  infl_sem97       0.00368123  infl_sem97
  1 9 14  infl_sem97       0.00970248  infl_sem97
  1 9 15  infl_sem97       0.00643562  infl_sem97
  1 9 16  infl_sem94  8.67564713E-04  infl_sem94
  1 9 16  infl_sem97       0.00540544  infl_sem97
  1 9 17  infl_sem94       0.15157948  infl_sem94
  1 9 17  infl_sem97       0.00123246  infl_sem97
  1 9 18  infl_sem94       0.04189230  infl_sem94
  1 9 18  infl_sem95       0.00194717  infl_sem95
  1 9 18  infl_sem97  2.50089673E-07  infl_sem97
  1 10 8  infl_sem97       0.00130197  infl_sem97
  1 10 9  infl_sem97       0.00402134  infl_sem97
  1 10 9  infl_sem102  2.74636524E-06  infl_sem102
  1 10 10  infl_sem97       0.04456609  infl_sem97
  1 10 10  infl_sem102       0.00206936  infl_sem102
  1 10 11  infl_sem97       0.00626952  infl_sem97
  1 10 11  infl_sem102  6.48851076E-04  infl_sem102
  1 10 12  infl_sem97       0.00303068  infl_sem97
  1 10 13  infl_sem97       0.00353506  infl_sem97
  1 10 14  infl_sem97       0.00479399  infl_sem97
  1 10 15  infl_sem97       0.03389636  infl_sem97
  1 10 16  infl_sem97       0.01717748  infl_sem97
  1 10 17  infl_sem94  7.17942093E-05  infl_sem94
  1 10 17  infl_sem97       0.00766324  infl_sem97
  1 10 18  infl_sem94       0.04139480  infl_sem94
  1 10 18  infl_sem97  7.65459670E-04  infl_sem97
  1 10 19  infl_sem94       0.27967442  infl_sem94
  1 10 19  infl_sem95  1.61995584E-04  infl_sem95
  1 11 8  infl_sem97       0.00357526  infl_sem97
  1 11 9  infl_sem97       0.23005570  infl_sem97
  1 11 9  infl_sem102       0.01625834  infl_sem102
  1 11 10  infl_sem102       0.01955708  infl_sem102
  1 11 11  infl_sem97  4.44180689E-04  infl_sem97
  1 11 11  infl_sem102       0.01908151  infl_sem102
  1 11 12  infl_sem97  9.70503989E-04  infl_sem97
  1 11 12  infl_sem102       0.01549869  infl_sem102
  1 11 13  infl_sem97  7.40311712E-04  infl_sem97
  1 11 13  infl_sem102       0.01203314  infl_sem102
  1 11 14  infl_sem97       0.00217557  infl_sem97
  1 11 14  infl_sem102       0.01051921  infl_sem102
  1 11 15  infl_sem97       0.00508891  infl_sem97
  1 11 15  infl_sem102       0.00546451  infl_sem102
  1 11 16  infl_sem97       0.00648214  infl_sem97
  1 11 16  infl_sem102  4.04710791E-05  infl_sem102
  1 11 17  infl_sem97       0.00862087  infl_sem97
  1 11 17  infl_sem102  1.43942820E-05  infl_sem102
  1 11 18  infl_sem94  2.93662848E-04  infl_sem94
  1 11 18  infl_sem97       0.01234486  infl_sem97
  1 11 19  infl_sem94       0.06180784  infl_sem94
  1 11 19  infl_sem95       0.00942113  infl_sem95
  1 11 19  infl_sem97  5.19048583E-04  infl_sem97
  1 11 20  infl_sem94       0.02426232  infl_sem94
  1 11 20  infl_sem95       0.01592869  infl_sem95
  1 11 21  infl_sem95       0.05507044  infl_sem95
  1 11 22  infl_sem95       0.02457975  infl_sem95
  1 12 8  infl_sem97       0.01290859  infl_sem97
  1 12 8  infl_sem102  6.99970522E-07  infl_sem102
  1 12 9  infl_sem97       0.00256748  infl_sem97
  1 12 9  infl_sem102       0.01443072  infl_sem102
  1 12 10  infl_sem102       0.03192007  infl_sem102
  1 12 11  infl_sem102       0.01283672  infl_sem102
  1 12 12  infl_sem81       0.02030479  infl_sem81
  1 12 12  infl_sem102       0.00933054  infl_sem102
  1 12 13  infl_sem81       0.01616505  infl_sem81
  1 12 13  infl_sem102       0.00400822  infl_sem102
  1 12 14  infl_sem81       0.00540528  infl_sem81
  1 12 14  infl_sem102       0.02107391  infl_sem102
  1 12 15  infl_sem102       0.00863518  infl_sem102
  1 12 16  infl_sem97  6.01176398E-04  infl_sem97
  1 12 16  infl_sem102       0.01384997  infl_sem102
  1 12 17  infl_sem97       0.00372114  infl_sem97
  1 12 17  infl_sem102       0.00448738  infl_sem102
  1 12 18  infl_sem97       0.01288477  infl_sem97
  1 12 19  infl_sem95       0.00879858  infl_sem95
  1 12 19  infl_sem97       0.00545886  infl_sem97
  1 12 20  infl_sem95       0.02190706  infl_sem95
  1 12 21  infl_sem95       0.00483762  infl_sem95
  1 12 22  infl_sem95       0.00409118  infl_sem95
  1 12 23  infl_sem95       0.00523829  infl_sem95
  1 12 24  infl_sem95       0.04962490  infl_sem95
  1 13 8  infl_sem97       0.00271586  infl_sem97
  1 13 8  infl_sem102       0.00164509  infl_sem102
  1 13 9  infl_sem102       0.01177313  infl_sem102
  1 13 10  infl_sem102       0.01749765  infl_sem102
  1 13 11  infl_sem102       0.00531828  infl_sem102
  1 13 12  infl_sem81  6.53347217E-04  infl_sem81
  1 13 12  infl_sem102       0.00121865  infl_sem102
  1 13 14  infl_sem81       0.00286956  infl_sem81
  1 13 14  infl_sem102  1.84760701E-04  infl_sem102
  1 13 15  infl_sem81       0.00557071  infl_sem81
  1 13 15  infl_sem102       0.00606069  infl_sem102
  1 13 16  infl_sem97  7.56952837E-05  infl_sem97
  1 13 16  infl_sem102       0.01218601  infl_sem102
  1 13 17  infl_sem97  9.49891982E-04  infl_sem97
  1 13 17  infl_sem102       0.00434364  infl_sem102
  1 13 18  infl_sem97       0.00185151  infl_sem97
  1 13 18  infl_sem102       0.00373906  infl_sem102
  1 13 19  infl_sem95       0.00393226  infl_sem95
  1 13 19  infl_sem97       0.00229556  infl_sem97
  1 13 19  infl_sem102  3.24470097E-04  infl_sem102
  1 13 20  infl_sem95       0.01174793  infl_sem95
  1 13 20  infl_sem97       0.00248143  infl_sem97
  1 13 21  infl_sem95       0.01873077  infl_sem95
  1 13 21  infl_sem97  2.62484861E-04  infl_sem97
  1 13 22  infl_sem95       0.00360952  infl_sem95
  1 13 23  infl_sem95       0.00311538  infl_sem95
  1 13 24  infl_sem95       0.00540526  infl_sem95
  1 13 25  infl_sem95       0.00644715  infl_sem95
  1 13 26  infl_sem95       0.03754830  infl_sem95
  1 13 27  infl_sem95       0.05942196  infl_sem95
  1 13 28  infl_sem95       0.01885062  infl_sem95
  1 13 34  infl_sem95       0.01588625  infl_sem95
  1 13 34  infl_sem102       0.00184160  infl_sem102
  1 14 8  infl_sem97       0.02019995  infl_sem97
  1 14 8  infl_sem102       0.00378165  infl_sem102
  1 14 9  infl_sem102       0.01418185  infl_sem102
  1 14 10  infl_sem102       0.00498653  infl_sem102
  1 14 11  infl_sem102       0.00418580  infl_sem102
  1 14 12  infl_sem81       0.00487305  infl_sem81
  1 14 12  infl_sem102       0.00417210  infl_sem102
  1 14 15  infl_sem81       0.00217754  infl_sem81
  1 14 15  infl_sem102  2.17718064E-04  infl_sem102
  1 14 16  infl_sem81       0.00498087  infl_sem81
  1 14 16  infl_sem102       0.00933894  infl_sem102
  1 14 17  infl_sem81  5.17251256E-05  infl_sem81
  1 14 17  infl_sem102       0.00655271  infl_sem102
  1 14 18  infl_sem102       0.01024177  infl_sem102
  1 14 19  infl_sem97  3.59501676E-04  infl_sem97
  1 14 19  infl_sem102       0.00987152  infl_sem102
  1 14 20  infl_sem97       0.00172888  infl_sem97
  1 14 20  infl_sem102       0.00403460  infl_sem102
  1 14 21  infl_sem95       0.00402185  infl_sem95
  1 14 21  infl_sem96       0.00265021  infl_sem96
  1 14 21  infl_sem97  9.41588812E-04  infl_sem97
  1 14 22  infl_sem95       0.04277844  infl_sem95
  1 14 22  infl_sem96       0.02253239  infl_sem96
  1 14 23  infl_sem95       0.00289204  infl_sem95
  1 14 24  infl_sem95       0.00284953  infl_sem95
  1 14 25  infl_sem95       0.00533315  infl_sem95
  1 14 26  infl_sem95       0.00589100  infl_sem95
  1 14 27  infl_sem95       0.00456089  infl_sem95
  1 14 28  infl_sem95       0.00440594  infl_sem95
  1 14 29  infl_sem95       0.00411118  infl_sem95
  1 14 30  infl_sem95       0.01210486  infl_sem95
  1 14 31  infl_sem95       0.01156012  infl_sem95
  1 14 32  infl_sem95       0.00503766  infl_sem95
  1 14 33  infl_sem95       0.00233295  infl_sem95
  1 14 33  infl_sem96  3.73903419E-06  infl_sem96
  1 14 34  infl_sem95       0.02196551  infl_sem95
  1 14 34  infl_sem96  8.76477444E-04  infl_sem96
  1 14 34  infl_sem102       0.03409269  infl_sem102
  1 14 35  infl_sem93       0.00120686  infl_sem93
  1 14 35  infl_sem95  1.16410185E-06  infl_sem95
  1 14 35  infl_sem101       0.00120686  infl_sem101
  1 14 35  infl_sem102  4.91161702E-04  infl_sem102
  1 15 8  infl_sem97       0.00250022  infl_sem97
  1 15 8  infl_sem102       0.00513027  infl_sem102
  1 15 9  infl_sem102       0.00994783  infl_sem102
  1 15 10  infl_sem102       0.00667726  infl_sem102
  1 15 11  infl_sem102       0.00444888  infl_sem102
  1 15 12  infl_sem81       0.01598486  infl_sem81
  1 15 12  infl_sem102       0.00220757  infl_sem102
  1 15 13  infl_sem81       0.00165562  infl_sem81
  1 15 13  infl_sem102  2.43531915E-06  infl_sem102
  1 15 16  infl_sem81       0.00756376  infl_sem81
  1 15 16  infl_sem102  5.66048101E-04  infl_sem102
  1 15 17  infl_sem81       0.00139567  infl_sem81
  1 15 17  infl_sem102  1.42041949E-04  infl_sem102
  1 15 18  infl_sem81       0.01025437  infl_sem81
  1 15 18  infl_sem102       0.00609308  infl_sem102
  1 15 19  infl_sem93       0.00163799  infl_sem93
  1 15 19  infl_sem101       0.00163799  infl_sem101
  1 15 19  infl_sem102       0.01445060  infl_sem102
  1 15 20  infl_sem93       0.00184304  infl_sem93
  1 15 20  infl_sem97  5.15233083E-04  infl_sem97
  1 15 20  infl_sem101       0.00184304  infl_sem101
  1 15 20  infl_sem102       0.00821157  infl_sem102
  1 15 21  infl_sem96       0.02233319  infl_sem96
  1 15 21  infl_sem97       0.00174192  infl_sem97
  1 15 21  infl_sem102  8.51369483E-04  infl_sem102
  1 15 22  infl_sem95  9.83044300E-04  infl_sem95
  1 15 22  infl_sem96       0.02915463  infl_sem96
  1 15 23  infl_sem95       0.01236645  infl_sem95
  1 15 23  infl_sem96       0.02024306  infl_sem96
  1 15 24  infl_sem95       0.05877962  infl_sem95
  1 15 24  infl_sem96       0.00730414  infl_sem96
  1 15 25  infl_sem95       0.00672224  infl_sem95
  1 15 26  infl_sem95       0.00773859  infl_sem95
  1 15 27  infl_sem95       0.00922006  infl_sem95
  1 15 28  infl_sem95       0.01448310  infl_sem95
  1 15 29  infl_sem95       0.00516424  infl_sem95
  1 15 30  infl_sem95       0.02767402  infl_sem95
  1 15 31  infl_sem95       0.03923132  infl_sem95
  1 15 32  infl_sem95       0.01327698  infl_sem95
  1 15 32  infl_sem96  9.58542832E-04  infl_sem96
  1 15 33  infl_sem95       0.00533182  infl_sem95
  1 15 33  infl_sem96       0.00157788  infl_sem96
  1 15 33  infl_sem102       0.00474692  infl_sem102
  1 15 34  infl_sem95  1.68711682E-04  infl_sem95
  1 15 34  infl_sem96  6.88200484E-05  infl_sem96
  1 15 34  infl_sem102       0.07671271  infl_sem102
  1 15 35  infl_sem93       0.00732745  infl_sem93
  1 15 35  infl_sem101       0.00732745  infl_sem101
  1 15 35  infl_sem102       0.00197223  infl_sem102
  1 16 7  infl_sem25  7.89113434E-04  infl_sem25
  1 16 7  infl_sem97  6.08320761E-04  infl_sem97
  1 16 8  infl_sem25       0.00297465  infl_sem25
  1 16 8  infl_sem97  3.14039730E-04  infl_sem97
  1 16 8  infl_sem102       0.00841181  infl_sem102
  1 16 9  infl_sem25       0.00203661  infl_sem25
  1 16 9  infl_sem102       0.00687230  infl_sem102
  1 16 10  infl_sem81       0.00747852  infl_sem81
  1 16 10  infl_sem102       0.00294430  infl_sem102
  1 16 11  infl_sem81       0.00570361  infl_sem81
  1 16 11  infl_sem102  5.99977253E-04  infl_sem102
  1 16 12  infl_sem81       0.00198572  infl_sem81
  1 16 12  infl_sem102  1.48653219E-04  infl_sem102
  1 16 18  infl_sem05  1.27285468E-05  infl_sem05
  1 16 18  infl_sem81       0.00111004  infl_sem81
  1 16 18  infl_sem93  2.32192892E-07  infl_sem93
  1 16 18  infl_sem101  2.32192892E-07  infl_sem101
  1 16 18  infl_sem102  4.61811163E-05  infl_sem102
  1 16 19  infl_sem93  4.79261598E-05  infl_sem93
  1 16 19  infl_sem101  4.79261598E-05  infl_sem101
  1 16 19  infl_sem102  1.89221038E-05  infl_sem102
  1 16 20  infl_sem93  7.81565829E-05  infl_sem93
  1 16 20  infl_sem97  2.46946861E-08  infl_sem97
  1 16 20  infl_sem101  7.81565829E-05  infl_sem101
  1 16 20  infl_sem102  7.27552519E-07  infl_sem102
  1 16 21  infl_sem93       0.00301570  infl_sem93
  1 16 21  infl_sem96       0.00112145  infl_sem96
  1 16 21  infl_sem97  3.79003005E-04  infl_sem97
  1 16 21  infl_sem101       0.00301570  infl_sem101
  1 16 21  infl_sem102       0.00517713  infl_sem102
  1 16 22  infl_sem96       0.03342168  infl_sem96
  1 16 22  infl_sem97  9.51887313E-04  infl_sem97
  1 16 22  infl_sem102       0.00167043  infl_sem102
  1 16 23  infl_sem96       0.04612220  infl_sem96
  1 16 23  infl_sem97  9.95694166E-05  infl_sem97
  1 16 24  infl_sem95       0.00664457  infl_sem95
  1 16 24  infl_sem96       0.03654967  infl_sem96
  1 16 25  infl_sem95       0.02257287  infl_sem95
  1 16 25  infl_sem96       0.00217481  infl_sem96
  1 16 26  infl_sem95       0.01025917  infl_sem95
  1 16 26  infl_sem96  3.76977961E-06  infl_sem96
  1 16 27  infl_sem95       0.00575155  infl_sem95
  1 16 27  infl_sem96       0.00731849  infl_sem96
  1 16 28  infl_sem95       0.00541986  infl_sem95
  1 16 29  infl_sem95       0.01686331  infl_sem95
  1 16 30  infl_sem95       0.04567537  infl_sem95
  1 16 31  infl_sem95       0.04479026  infl_sem95
  1 16 31  infl_sem96  6.46869909E-04  infl_sem96
  1 16 31  infl_sem97       0.00214825  infl_sem97
  1 16 32  infl_sem95       0.02212068  infl_sem95
  1 16 32  infl_sem96       0.01634714  infl_sem96
  1 16 32  infl_sem97  3.99791514E-04  infl_sem97
  1 16 33  infl_sem95  8.59241193E-04  infl_sem95
  1 16 33  infl_sem96       0.01557525  infl_sem96
  1 16 33  infl_sem102       0.08091031  infl_sem102
  1 16 34  infl_sem93       0.00617191  infl_sem93
  1 16 34  infl_sem101       0.00617191  infl_sem101
  1 16 34  infl_sem102       0.01973762  infl_sem102
  1 16 35  infl_sem93       0.00349339  infl_sem93
  1 16 35  infl_sem101       0.00349339  infl_sem101
  1 16 35  infl_sem102  5.80119575E-05  infl_sem102
  1 17 7  infl_sem25  4.14654193E-04  infl_sem25
  1 17 7  infl_sem62       0.00980090  infl_sem62
  1 17 7  infl_sem97  8.32655850E-06  infl_sem97
  1 17 8  infl_sem25       0.01877042  infl_sem25
  1 17 8  infl_sem102       0.00295422  infl_sem102
  1 17 9  infl_sem25       0.03113167  infl_sem25
  1 17 9  infl_sem102       0.01892458  infl_sem102
  1 17 10  infl_sem81       0.00436834  infl_sem81
  1 17 10  infl_sem102  7.70806146E-04  infl_sem102
  1 17 11  infl_sem81       0.02337396  infl_sem81
  1 17 11  infl_sem102  3.02664400E-04  infl_sem102
  1 17 12  infl_sem81       0.02392283  infl_sem81
  1 17 12  infl_sem102       0.00204102  infl_sem102
  1 17 17  infl_sem05  4.39901470E-04  infl_sem05
  1 17 17  infl_sem81       0.00563730  infl_sem81
  1 17 18  infl_sem05       0.00272483  infl_sem05
  1 17 18  infl_sem81       0.00492182  infl_sem81
  1 17 18  infl_sem93  4.40080464E-05  infl_sem93
  1 17 18  infl_sem101  4.40080464E-05  infl_sem101
  1 17 18  infl_sem102  7.72033721E-05  infl_sem102
  1 17 19  infl_sem05       0.00374674  infl_sem05
  1 17 19  infl_sem93       0.00287836  infl_sem93
  1 17 19  infl_sem101       0.00287836  infl_sem101
  1 17 22  infl_sem93       0.00809830  infl_sem93
  1 17 22  infl_sem97  1.84046163E-05  infl_sem97
  1 17 22  infl_sem101       0.00809830  infl_sem101
  1 17 22  infl_sem102       0.00300355  infl_sem102
  1 17 23  infl_sem93       0.00273706  infl_sem93
  1 17 23  infl_sem96       0.00511870  infl_sem96
  1 17 23  infl_sem97  4.27027057E-04  infl_sem97
  1 17 23  infl_sem101       0.00273706  infl_sem101
  1 17 23  infl_sem102       0.00626134  infl_sem102
  1 17 24  infl_sem96       0.01829435  infl_sem96
  1 17 24  infl_sem97  9.86890702E-04  infl_sem97
  1 17 24  infl_sem102  9.68660046E-04  infl_sem102
  1 17 25  infl_sem95       0.00581655  infl_sem95
  1 17 25  infl_sem96       0.01844646  infl_sem96
  1 17 25  infl_sem97       0.00148508  infl_sem97
  1 17 26  infl_sem95       0.01148394  infl_sem95
  1 17 26  infl_sem96       0.16573919  infl_sem96
  1 17 27  infl_sem95       0.00199757  infl_sem95
  1 17 27  infl_sem96       0.10275972  infl_sem96
  1 17 28  infl_sem95       0.00662854  infl_sem95
  1 17 28  infl_sem96       0.01321136  infl_sem96
  1 17 29  infl_sem95       0.00340814  infl_sem95
  1 17 29  infl_sem96  6.75378137E-04  infl_sem96
  1 17 30  infl_sem95       0.04694895  infl_sem95
  1 17 30  infl_sem96       0.01007036  infl_sem96
  1 17 30  infl_sem97       0.01472073  infl_sem97
  1 17 31  infl_sem95       0.02189302  infl_sem95
  1 17 31  infl_sem96       0.04709969  infl_sem96
  1 17 31  infl_sem97       0.01320871  infl_sem97
  1 17 32  infl_sem96       0.02632495  infl_sem96
  1 17 33  infl_sem96       0.00713874  infl_sem96
  1 17 33  infl_sem102       0.07726183  infl_sem102
  1 17 34  infl_sem93       0.00848131  infl_sem93
  1 17 34  infl_sem101       0.00848131  infl_sem101
  1 17 34  infl_sem102       0.00304597  infl_sem102
  1 17 38  infl_sem93  1.30329512E-04  infl_sem93
  1 17 38  infl_sem101  1.30329512E-04  infl_sem101
  1 18 6  infl_sem25  3.39015559E-04  infl_sem25
  1 18 6  infl_sem62       0.13255088  infl_sem62
  1 18 7  infl_sem25       0.05290150  infl_sem25
  1 18 7  infl_sem62       0.67560893  infl_sem62
  1 18 7  infl_sem97       0.01221111  infl_sem97
  1 18 8  infl_sem25       0.06015140  infl_sem25
  1 18 8  infl_sem102  7.71623861E-05  infl_sem102
  1 18 9  infl_sem25       0.00389682  infl_sem25
  1 18 9  infl_sem102       0.00521637  infl_sem102
  1 18 10  infl_sem81       0.00537459  infl_sem81
  1 18 10  infl_sem102  4.28845893E-04  infl_sem102
  1 18 11  infl_sem81       0.00892170  infl_sem81
  1 18 12  infl_sem81       0.31624857  infl_sem81
  1 18 17  infl_sem05  1.56611338E-05  infl_sem05
  1 18 17  infl_sem81  1.86194977E-04  infl_sem81
  1 18 18  infl_sem05       0.00286281  infl_sem05
  1 18 18  infl_sem81       0.00976446  infl_sem81
  1 18 19  infl_sem05       0.00387346  infl_sem05
  1 18 19  infl_sem93  1.16253571E-04  infl_sem93
  1 18 19  infl_sem101  1.16253571E-04  infl_sem101
  1 18 20  infl_sem05  4.09250303E-04  infl_sem05
  1 18 20  infl_sem93       0.00123287  infl_sem93
  1 18 20  infl_sem101       0.00123287  infl_sem101
  1 18 21  infl_sem05  6.04099222E-06  infl_sem05
  1 18 21  infl_sem93  2.70224004E-05  infl_sem93
  1 18 21  infl_sem101  2.70224004E-05  infl_sem101
  1 18 22  infl_sem05  5.03489235E-04  infl_sem05
  1 18 22  infl_sem93  3.44144366E-04  infl_sem93
  1 18 22  infl_sem101  3.44144366E-04  infl_sem101
  1 18 24  infl_sem93       0.00168363  infl_sem93
  1 18 24  infl_sem97  2.57526720E-05  infl_sem97
  1 18 24  infl_sem101       0.00168363  infl_sem101
  1 18 24  infl_sem102  7.59097919E-04  infl_sem102
  1 18 25  infl_sem93       0.00619220  infl_sem93
  1 18 25  infl_sem96  1.67455760E-04  infl_sem96
  1 18 25  infl_sem97  3.35750541E-04  infl_sem97
  1 18 25  infl_sem101       0.00619220  infl_sem101
  1 18 25  infl_sem102       0.01822527  infl_sem102
  1 18 26  infl_sem93       0.00205029  infl_sem93
  1 18 26  infl_sem96       0.01254924  infl_sem96
  1 18 26  infl_sem97  4.15157577E-04  infl_sem97
  1 18 26  infl_sem101       0.00205029  infl_sem101
  1 18 26  infl_sem102       0.01358926  infl_sem102
  1 18 27  infl_sem96       0.02181163  infl_sem96
  1 18 27  infl_sem97  1.69681162E-04  infl_sem97
  1 18 28  infl_sem95  2.68473234E-05  infl_sem95
  1 18 28  infl_sem96       0.00813716  infl_sem96
  1 18 29  infl_sem96       0.00254188  infl_sem96
  1 18 30  infl_sem96       0.00696664  infl_sem96
  1 18 31  infl_sem96       0.02668600  infl_sem96
  1 18 32  infl_sem96       0.01124164  infl_sem96
  1 18 32  infl_sem102       0.00183394  infl_sem102
  1 18 33  infl_sem93       0.01667766  infl_sem93
  1 18 33  infl_sem96       0.00215143  infl_sem96
  1 18 33  infl_sem101       0.01667766  infl_sem101
  1 18 33  infl_sem102       0.08785802  infl_sem102
  1 18 37  infl_sem93  8.52210229E-04  infl_sem93
  1 18 37  infl_sem101  8.52210229E-04  infl_sem101
  1 19 6  infl_sem25       0.00984603  infl_sem25
  1 19 6  infl_sem62       0.04281140  infl_sem62
  1 19 6  infl_sem88  1.03034308E-05  infl_sem88
  1 19 6  infl_sem97       0.00174723  infl_sem97
  1 19 7  infl_sem25       0.05646638  infl_sem25
  1 19 8  infl_sem25       0.01502042  infl_sem25
  1 19 8  infl_sem102       0.00335864  infl_sem102
  1 19 9  infl_sem81       0.00438007  infl_sem81
  1 19 9  infl_sem102       0.01199381  infl_sem102
  1 19 10  infl_sem81       0.00888619  infl_sem81
  1 19 10  infl_sem102       0.00114884  infl_sem102
  1 19 11  infl_sem81       0.01226678  infl_sem81
  1 19 12  infl_sem81       0.00216812  infl_sem81
  1 19 17  infl_sem05  6.12468903E-04  infl_sem05
  1 19 17  infl_sem81       0.00570840  infl_sem81
  1 19 18  infl_sem05       0.00178243  infl_sem05
  1 19 19  infl_sem05       0.01163782  infl_sem05
  1 19 19  infl_sem93  2.92437204E-04  infl_sem93
  1 19 19  infl_sem101  2.92437204E-04  infl_sem101
  1 19 20  infl_sem05  2.76161963E-04  infl_sem05
  1 19 20  infl_sem93  8.01900215E-04  infl_sem93
  1 19 20  infl_sem101  8.01900215E-04  infl_sem101
  1 19 21  infl_sem05  7.71178438E-04  infl_sem05
  1 19 21  infl_sem93       0.00204383  infl_sem93
  1 19 21  infl_sem101       0.00204383  infl_sem101
  1 19 22  infl_sem05       0.00227327  infl_sem05
  1 19 22  infl_sem93       0.00183559  infl_sem93
  1 19 22  infl_sem101       0.00183559  infl_sem101
  1 19 26  infl_sem93       0.00187974  infl_sem93
  1 19 26  infl_sem97  1.17648110E-05  infl_sem97
  1 19 26  infl_sem101       0.00187974  infl_sem101
  1 19 26  infl_sem102  2.73049328E-04  infl_sem102
  1 19 27  infl_sem93       0.00252519  infl_sem93
  1 19 27  infl_sem96       0.00478975  infl_sem96
  1 19 27  infl_sem97  2.22294663E-04  infl_sem97
  1 19 27  infl_sem101       0.00252519  infl_sem101
  1 19 27  infl_sem102       0.00422703  infl_sem102
  1 19 28  infl_sem96       0.00386902  infl_sem96
  1 19 28  infl_sem97  1.47420048E-04  infl_sem97
  1 19 28  infl_sem102       0.00474468  infl_sem102
  1 19 29  infl_sem96       0.00108477  infl_sem96
  1 19 29  infl_sem97  1.36248738E-05  infl_sem97
  1 19 29  infl_sem102  3.45394685E-05  infl_sem102
  1 19 30  infl_sem96       0.00175511  infl_sem96
  1 19 30  infl_sem97  3.64373146E-05  infl_sem97
  1 19 30  infl_sem102  5.81375439E-05  infl_sem102
  1 19 31  infl_sem93  7.10205363E-04  infl_sem93
  1 19 31  infl_sem96       0.01089457  infl_sem96
  1 19 31  infl_sem101  7.10205363E-04  infl_sem101
  1 19 31  infl_sem102       0.02092949  infl_sem102
  1 19 32  infl_sem93       0.01390849  infl_sem93
  1 19 32  infl_sem96       0.00339741  infl_sem96
  1 19 32  infl_sem101       0.01390849  infl_sem101
  1 19 32  infl_sem102       0.02043662  infl_sem102
  1 19 33  infl_sem93  1.59145281E-05  infl_sem93
  1 19 33  infl_sem101  1.59145281E-05  infl_sem101
  1 19 33  infl_sem102  1.10612916E-06  infl_sem102
  1 19 36  infl_sem93  2.37087474E-05  infl_sem93
  1 19 36  infl_sem101  2.37087474E-05  infl_sem101
  1 19 37  infl_sem93  4.90424515E-04  infl_sem93
  1 19 37  infl_sem101  4.90424515E-04  infl_sem101
  1 20 6  infl_sem25       0.04233568  infl_sem25
  1 20 6  infl_sem88       0.00338176  infl_sem88
  1 20 7  infl_sem25       0.03455806  infl_sem25
  1 20 8  infl_sem05       0.00185112  infl_sem05
  1 20 8  infl_sem25       0.01688194  infl_sem25
  1 20 8  infl_sem102       0.01122813  infl_sem102
  1 20 9  infl_sem05       0.00190305  infl_sem05
  1 20 9  infl_sem81       0.04291871  infl_sem81
  1 20 9  infl_sem102       0.00497727  infl_sem102
  1 20 10  infl_sem05       0.00715549  infl_sem05
  1 20 10  infl_sem81       0.04620831  infl_sem81
  1 20 10  infl_sem102       0.00321477  infl_sem102
  1 20 11  infl_sem05  7.88063893E-05  infl_sem05
  1 20 11  infl_sem81       0.00622185  infl_sem81
  1 20 11  infl_sem102  4.55205929E-07  infl_sem102
  1 20 12  infl_sem05  4.04336576E-05  infl_sem05
  1 20 12  infl_sem81       0.00961121  infl_sem81
  1 20 17  infl_sem05  6.23507927E-07  infl_sem05
  1 20 17  infl_sem81  2.20080010E-04  infl_sem81
  1 20 18  infl_sem05  2.13866798E-04  infl_sem05
  1 20 18  infl_sem81       0.00158044  infl_sem81
  1 20 19  infl_sem05       0.00649740  infl_sem05
  1 20 20  infl_sem05       0.00317320  infl_sem05
  1 20 20  infl_sem93  3.78650414E-04  infl_sem93
  1 20 20  infl_sem101  3.78650414E-04  infl_sem101
  1 20 21  infl_sem05       0.00133739  infl_sem05
  1 20 21  infl_sem93       0.00144296  infl_sem93
  1 20 21  infl_sem101       0.00144296  infl_sem101
  1 20 22  infl_sem05       0.00242913  infl_sem05
  1 20 22  infl_sem93  9.40840085E-04  infl_sem93
  1 20 22  infl_sem101  9.40840085E-04  infl_sem101
  1 20 24  infl_sem93       0.00114175  infl_sem93
  1 20 24  infl_sem101       0.00114175  infl_sem101
  1 20 25  infl_sem93  1.07854262E-05  infl_sem93
  1 20 25  infl_sem101  1.07854262E-05  infl_sem101
  1 20 28  infl_sem93       0.00235958  infl_sem93
  1 20 28  infl_sem101       0.00235958  infl_sem101
  1 20 28  infl_sem102  7.09387402E-04  infl_sem102
  1 20 29  infl_sem93       0.00250508  infl_sem93
  1 20 29  infl_sem96  6.60378577E-05  infl_sem96
  1 20 29  infl_sem97  3.19468944E-05  infl_sem97
  1 20 29  infl_sem101       0.00250508  infl_sem101
  1 20 29  infl_sem102       0.00111878  infl_sem102
  1 20 30  infl_sem93       0.00796405  infl_sem93
  1 20 30  infl_sem96  2.69455241E-05  infl_sem96
  1 20 30  infl_sem97  1.35411380E-05  infl_sem97
  1 20 30  infl_sem101       0.00796405  infl_sem101
  1 20 30  infl_sem102       0.00446576  infl_sem102
  1 20 31  infl_sem93       0.00647690  infl_sem93
  1 20 31  infl_sem101       0.00647690  infl_sem101
  1 20 31  infl_sem102  6.78714195E-04  infl_sem102
  1 20 36  infl_sem93       0.00239614  infl_sem93
  1 20 36  infl_sem101       0.00239614  infl_sem101
  1 20 37  infl_sem93  9.43222911E-04  infl_sem93
  1 20 37  infl_sem101  9.43222911E-04  infl_sem101
  1 21 5  infl_sem62  3.43721060E-04  infl_sem62
  1 21 5  infl_sem88       0.00727192  infl_sem88
  1 21 6  infl_sem25  9.84552033E-04  infl_sem25
  1 21 6  infl_sem88       0.00817531  infl_sem88
  1 21 7  infl_sem25       0.01313721  infl_sem25
  1 21 7  infl_sem88       0.00550571  infl_sem88
  1 21 8  infl_sem05  4.52810877E-05  infl_sem05
  1 21 8  infl_sem25       0.01003592  infl_sem25
  1 21 9  infl_sem05  7.92470253E-04  infl_sem05
  1 21 9  infl_sem25       0.00435124  infl_sem25
  1 21 10  infl_sem05       0.00238104  infl_sem05
  1 21 10  infl_sem25  9.13385355E-05  infl_sem25
  1 21 11  infl_sem05       0.00124557  infl_sem05
  1 21 11  infl_sem81       0.00102767  infl_sem81
  1 21 12  infl_sem05       0.00734763  infl_sem05
  1 21 12  infl_sem81       0.28521864  infl_sem81
  1 21 17  infl_sem05  5.62065466E-04  infl_sem05
  1 21 17  infl_sem81       0.02909187  infl_sem81
  1 21 18  infl_sem05       0.00179636  infl_sem05
  1 21 18  infl_sem81       0.00822541  infl_sem81
  1 21 19  infl_sem05       0.00951685  infl_sem05
  1 21 20  infl_sem05       0.00382260  infl_sem05
  1 21 21  infl_sem05       0.01758890  infl_sem05
  1 21 22  infl_sem05       0.00733328  infl_sem05
  1 21 23  infl_sem05  6.59598820E-04  infl_sem05
  1 21 23  infl_sem93  5.60934898E-04  infl_sem93
  1 21 23  infl_sem101  5.60934898E-04  infl_sem101
  1 21 24  infl_sem05  4.08889146E-04  infl_sem05
  1 21 24  infl_sem93       0.00304251  infl_sem93
  1 21 24  infl_sem101       0.00304251  infl_sem101
  1 21 25  infl_sem93  2.00968054E-04  infl_sem93
  1 21 25  infl_sem101  2.00968054E-04  infl_sem101
  1 21 34  infl_sem93       0.00163408  infl_sem93
  1 21 34  infl_sem101       0.00163408  infl_sem101
  1 21 35  infl_sem93  1.92853610E-04  infl_sem93
  1 21 35  infl_sem101  1.92853610E-04  infl_sem101
  1 21 36  infl_sem93       0.00729187  infl_sem93
  1 21 36  infl_sem101       0.00729187  infl_sem101