# File generated by Flopy version 3.3.2 on 05/05/2022 at 16:49:01.
BEGIN options
  auxiliary  multiplier
  AUXMULTNAME  multiplier
  BOUNDNAMES
  SAVE_FLOWS
  TS6  FILEIN  mf6-tv_hist-infiltration_rates-irr.ts
END options

BEGIN dimensions
  MAXBOUND  2172
END dimensions

BEGIN period  1
  1 5 9  infl_irr97       0.14962985  infl_irr97
  1 5 10  infl_irr94       0.01388322  infl_irr94
  1 5 10  infl_irr97       0.05827221  infl_irr97
  1 5 11  infl_irr94       0.02497363  infl_irr94
  1 5 12  infl_irr94       0.01788208  infl_irr94
  1 5 13  infl_irr94       0.01493291  infl_irr94
  1 6 9  infl_irr97  2.96390284E-04  infl_irr97
  1 6 10  infl_irr94  2.37583078E-04  infl_irr94
  1 6 10  infl_irr97       0.00179300  infl_irr97
  1 6 11  infl_irr94       0.00710401  infl_irr94
  1 6 11  infl_irr97       0.00165812  infl_irr97
  1 6 12  infl_irr94       0.04082793  infl_irr94
  1 6 12  infl_irr97       0.00137437  infl_irr97
  1 6 13  infl_irr94       0.02519954  infl_irr94
  1 6 13  infl_irr97       0.00106656  infl_irr97
  1 6 14  infl_irr35       1.00000000  infl_irr35
  1 6 14  infl_irr94       0.01886539  infl_irr94
  1 7 9  infl_irr97  1.87830699E-04  infl_irr97
  1 7 10  infl_irr97       0.00272274  infl_irr97
  1 7 11  infl_irr97       0.00717113  infl_irr97
  1 7 12  infl_irr94  3.77521117E-05  infl_irr94
  1 7 12  infl_irr97       0.00844808  infl_irr97
  1 7 13  infl_irr94  2.61860585E-04  infl_irr94
  1 7 13  infl_irr97       0.00740128  infl_irr97
  1 7 14  infl_irr94       0.01433092  infl_irr94
  1 7 14  infl_irr97       0.00605236  infl_irr97
  1 7 15  infl_irr94       0.02357130  infl_irr94
  1 7 15  infl_irr95       0.01282026  infl_irr95
  1 7 15  infl_irr97  8.49490775E-04  infl_irr97
  1 7 16  infl_irr94       0.18526356  infl_irr94
  1 7 16  infl_irr95       0.06798650  infl_irr95
  1 8 9  infl_irr97       0.00630703  infl_irr97
  1 8 10  infl_irr97       0.00461832  infl_irr97
  1 8 11  infl_irr97       0.01004611  infl_irr97
  1 8 12  infl_irr97       0.00846961  infl_irr97
  1 8 13  infl_irr97       0.00967596  infl_irr97
  1 8 14  infl_irr97       0.01032533  infl_irr97
  1 8 15  infl_irr94       0.00202687  infl_irr94
  1 8 15  infl_irr97       0.01064340  infl_irr97
  1 8 16  infl_irr94       0.02867794  infl_irr94
  1 8 16  infl_irr97       0.00409149  infl_irr97
  1 8 17  infl_irr94       0.05304169  infl_irr94
  1 9 9  infl_irr97       0.00764738  infl_irr97
  1 9 10  infl_irr97       0.01383299  infl_irr97
  1 9 11  infl_irr97       0.01032462  infl_irr97
  1 9 12  infl_irr97       0.01342390  infl_irr97
  1 9 13  infl_irr97       0.01196682  infl_irr97
  1 9 14  infl_irr97       0.01048823  infl_irr97
  1 9 15  infl_irr97       0.00931514  infl_irr97
  1 9 16  infl_irr94       0.00108874  infl_irr94
  1 9 16  infl_irr97       0.00757354  infl_irr97
  1 9 17  infl_irr94       0.05525924  infl_irr94
  1 9 17  infl_irr97       0.00321432  infl_irr97
  1 9 18  infl_irr94       0.15771559  infl_irr94
  1 9 18  infl_irr95       0.01902661  infl_irr95
  1 9 18  infl_irr97  8.89481295E-06  infl_irr97
  1 10 8  infl_irr97       0.00630689  infl_irr97
  1 10 9  infl_irr97       0.07613084  infl_irr97
  1 10 9  infl_irr102  3.54957982E-05  infl_irr102
  1 10 10  infl_irr97       0.09399438  infl_irr97
  1 10 10  infl_irr102       0.00236527  infl_irr102
  1 10 11  infl_irr97       0.00715219  infl_irr97
  1 10 11  infl_irr102  2.18852617E-04  infl_irr102
  1 10 12  infl_irr97       0.00966538  infl_irr97
  1 10 13  infl_irr97       0.01112797  infl_irr97
  1 10 14  infl_irr97       0.01016156  infl_irr97
  1 10 15  infl_irr97       0.00409406  infl_irr97
  1 10 16  infl_irr97       0.00999199  infl_irr97
  1 10 17  infl_irr94  5.52791260E-05  infl_irr94
  1 10 17  infl_irr97       0.00660376  infl_irr97
  1 10 18  infl_irr94       0.06151587  infl_irr94
  1 10 18  infl_irr97       0.00610564  infl_irr97
  1 10 19  infl_irr94       0.20479769  infl_irr94
  1 10 19  infl_irr95       0.00236595  infl_irr95
  1 11 8  infl_irr97       0.03148571  infl_irr97
  1 11 9  infl_irr97       0.10987089  infl_irr97
  1 11 9  infl_irr102       0.00445090  infl_irr102
  1 11 10  infl_irr102       0.01357624  infl_irr102
  1 11 11  infl_irr97  9.39773505E-04  infl_irr97
  1 11 11  infl_irr102       0.01195428  infl_irr102
  1 11 12  infl_irr97       0.00247489  infl_irr97
  1 11 12  infl_irr102       0.01174946  infl_irr102
  1 11 13  infl_irr97       0.00307827  infl_irr97
  1 11 13  infl_irr102       0.01486473  infl_irr102
  1 11 14  infl_irr97       0.00756839  infl_irr97
  1 11 14  infl_irr102       0.01088384  infl_irr102
  1 11 15  infl_irr97       0.00718419  infl_irr97
  1 11 15  infl_irr102       0.00229015  infl_irr102
  1 11 16  infl_irr97       0.00855872  infl_irr97
  1 11 16  infl_irr102  1.58767176E-05  infl_irr102
  1 11 17  infl_irr97       0.01223870  infl_irr97
  1 11 17  infl_irr102  7.48406733E-06  infl_irr102
  1 11 18  infl_irr94  7.31121430E-05  infl_irr94
  1 11 18  infl_irr97       0.00777767  infl_irr97
  1 11 19  infl_irr94       0.02159280  infl_irr94
  1 11 19  infl_irr95       0.01741355  infl_irr95
  1 11 19  infl_irr97       0.00129080  infl_irr97
  1 11 20  infl_irr94       0.02678352  infl_irr94
  1 11 20  infl_irr95       0.04576692  infl_irr95
  1 11 21  infl_irr95       0.02894687  infl_irr95
  1 11 22  infl_irr95       0.01919506  infl_irr95
  1 12 8  infl_irr97       0.02025287  infl_irr97
  1 12 8  infl_irr102  8.30802771E-07  infl_irr102
  1 12 9  infl_irr97       0.00419051  infl_irr97
  1 12 9  infl_irr102       0.01601763  infl_irr102
  1 12 10  infl_irr102       0.00363580  infl_irr102
  1 12 11  infl_irr102       0.00930684  infl_irr102
  1 12 12  infl_irr81       0.02029918  infl_irr81
  1 12 12  infl_irr102       0.01628701  infl_irr102
  1 12 13  infl_irr81       0.01232834  infl_irr81
  1 12 13  infl_irr102       0.00536714  infl_irr102
  1 12 14  infl_irr81       0.00150416  infl_irr81
  1 12 14  infl_irr102       0.01027965  infl_irr102
  1 12 15  infl_irr102       0.01366246  infl_irr102
  1 12 16  infl_irr97       0.00199895  infl_irr97
  1 12 16  infl_irr102       0.01370144  infl_irr102
  1 12 17  infl_irr97       0.00682679  infl_irr97
  1 12 17  infl_irr102       0.00245211  infl_irr102
  1 12 18  infl_irr97       0.01047682  infl_irr97
  1 12 19  infl_irr95       0.00814287  infl_irr95
  1 12 19  infl_irr97       0.00994926  infl_irr97
  1 12 20  infl_irr95       0.02244146  infl_irr95
  1 12 21  infl_irr95       0.02888445  infl_irr95
  1 12 22  infl_irr95       0.01023085  infl_irr95
  1 12 23  infl_irr95       0.01091139  infl_irr95
  1 12 24  infl_irr95       0.03416354  infl_irr95
  1 13 8  infl_irr97       0.00111774  infl_irr97
  1 13 8  infl_irr102  5.12649433E-04  infl_irr102
  1 13 9  infl_irr102       0.01102802  infl_irr102
  1 13 10  infl_irr102       0.00894214  infl_irr102
  1 13 11  infl_irr102       0.01049458  infl_irr102
  1 13 12  infl_irr81       0.00412014  infl_irr81
  1 13 12  infl_irr102       0.01360335  infl_irr102
  1 13 13  infl_irr81       0.00774810  infl_irr81
  1 13 13  infl_irr102  1.30647361E-04  infl_irr102
  1 13 14  infl_irr81       0.00150044  infl_irr81
  1 13 14  infl_irr102  1.69135278E-04  infl_irr102
  1 13 15  infl_irr81       0.00385577  infl_irr81
  1 13 15  infl_irr102       0.00731910  infl_irr102
  1 13 16  infl_irr97  2.62474716E-04  infl_irr97
  1 13 16  infl_irr102       0.01247033  infl_irr102
  1 13 17  infl_irr97       0.00715825  infl_irr97
  1 13 17  infl_irr102       0.00972212  infl_irr102
  1 13 18  infl_irr97       0.00771454  infl_irr97
  1 13 18  infl_irr102       0.00463286  infl_irr102
  1 13 19  infl_irr95       0.00566795  infl_irr95
  1 13 19  infl_irr97       0.00946694  infl_irr97
  1 13 19  infl_irr102  5.57926608E-04  infl_irr102
  1 13 20  infl_irr95       0.01699816  infl_irr95
  1 13 20  infl_irr97       0.00665264  infl_irr97
  1 13 21  infl_irr95       0.02863872  infl_irr95
  1 13 21  infl_irr97  6.21068560E-04  infl_irr97
  1 13 22  infl_irr95       0.02394041  infl_irr95
  1 13 23  infl_irr95       0.01190401  infl_irr95
  1 13 24  infl_irr95       0.01237684  infl_irr95
  1 13 25  infl_irr95       0.01063327  infl_irr95
  1 13 26  infl_irr95       0.01564021  infl_irr95
  1 13 27  infl_irr95       0.02079810  infl_irr95
  1 13 28  infl_irr95       0.02455130  infl_irr95
  1 13 34  infl_irr95       0.00135361  infl_irr95
  1 13 34  infl_irr102  2.64153988E-04  infl_irr102
  1 14 8  infl_irr97       0.01225732  infl_irr97
  1 14 8  infl_irr102       0.00173883  infl_irr102
  1 14 9  infl_irr102       0.01040220  infl_irr102
  1 14 10  infl_irr102       0.00601118  infl_irr102
  1 14 11  infl_irr102       0.00959264  infl_irr102
  1 14 12  infl_irr81       0.00857310  infl_irr81
  1 14 12  infl_irr102       0.01288525  infl_irr102
  1 14 13  infl_irr81       0.00832489  infl_irr81
  1 14 13  infl_irr102  4.28113224E-05  infl_irr102
  1 14 15  infl_irr81       0.00860251  infl_irr81
  1 14 15  infl_irr102       0.00148676  infl_irr102
  1 14 16  infl_irr81       0.00275562  infl_irr81
  1 14 16  infl_irr102       0.00907712  infl_irr102
  1 14 17  infl_irr81  6.60723887E-05  infl_irr81
  1 14 17  infl_irr102       0.01464359  infl_irr102
  1 14 18  infl_irr102       0.01273953  infl_irr102
  1 14 19  infl_irr97       0.00156576  infl_irr97
  1 14 19  infl_irr102       0.01281691  infl_irr102
  1 14 20  infl_irr97       0.00631743  infl_irr97
  1 14 20  infl_irr102       0.00760657  infl_irr102
  1 14 21  infl_irr95       0.01597518  infl_irr95
  1 14 21  infl_irr96       0.01458166  infl_irr96
  1 14 21  infl_irr97       0.00689916  infl_irr97
  1 14 22  infl_irr95       0.01499153  infl_irr95
  1 14 22  infl_irr96       0.01094360  infl_irr96
  1 14 23  infl_irr95       0.01791432  infl_irr95
  1 14 24  infl_irr95       0.01406605  infl_irr95
  1 14 25  infl_irr95       0.01186235  infl_irr95
  1 14 26  infl_irr95       0.00944920  infl_irr95
  1 14 27  infl_irr95       0.01002849  infl_irr95
  1 14 28  infl_irr95       0.00965496  infl_irr95
  1 14 29  infl_irr95       0.01225388  infl_irr95
  1 14 30  infl_irr95       0.00621847  infl_irr95
  1 14 31  infl_irr95       0.00792667  infl_irr95
  1 14 32  infl_irr95       0.01024943  infl_irr95
  1 14 33  infl_irr95       0.00788932  infl_irr95
  1 14 33  infl_irr96  4.94376503E-05  infl_irr96
  1 14 34  infl_irr95       0.01151289  infl_irr95
  1 14 34  infl_irr96  9.65885530E-04  infl_irr96
  1 14 34  infl_irr102       0.02962734  infl_irr102
  1 14 35  infl_irr93       0.00107907  infl_irr93
  1 14 35  infl_irr95  1.32801758E-06  infl_irr95
  1 14 35  infl_irr101       0.00107907  infl_irr101
  1 14 35  infl_irr102  8.99170713E-04  infl_irr102
  1 15 8  infl_irr97       0.00425945  infl_irr97
  1 15 8  infl_irr102       0.00660417  infl_irr102
  1 15 9  infl_irr102       0.00788487  infl_irr102
  1 15 10  infl_irr102       0.01562566  infl_irr102
  1 15 11  infl_irr102       0.00336848  infl_irr102
  1 15 12  infl_irr81       0.01250673  infl_irr81
  1 15 12  infl_irr102       0.00301403  infl_irr102
  1 15 13  infl_irr81  5.26689485E-04  infl_irr81
  1 15 13  infl_irr102  1.31936302E-06  infl_irr102
  1 15 16  infl_irr81       0.00387121  infl_irr81
  1 15 16  infl_irr102  5.07974574E-04  infl_irr102
  1 15 17  infl_irr81       0.00818194  infl_irr81
  1 15 17  infl_irr102       0.00145390  infl_irr102
  1 15 18  infl_irr81       0.00754862  infl_irr81
  1 15 18  infl_irr102       0.00783895  infl_irr102
  1 15 19  infl_irr93       0.00100681  infl_irr93
  1 15 19  infl_irr101       0.00100681  infl_irr101
  1 15 19  infl_irr102       0.00336635  infl_irr102
  1 15 20  infl_irr93       0.00234342  infl_irr93
  1 15 20  infl_irr97  4.13766563E-04  infl_irr97
  1 15 20  infl_irr101       0.00234342  infl_irr101
  1 15 20  infl_irr102       0.00663082  infl_irr102
  1 15 21  infl_irr96       0.04130848  infl_irr96
  1 15 21  infl_irr97       0.00594425  infl_irr97
  1 15 21  infl_irr102       0.00810643  infl_irr102
  1 15 22  infl_irr95       0.00116589  infl_irr95
  1 15 22  infl_irr96       0.04547937  infl_irr96
  1 15 23  infl_irr95       0.00876836  infl_irr95
  1 15 23  infl_irr96       0.01988090  infl_irr96
  1 15 24  infl_irr95       0.02908152  infl_irr95
  1 15 24  infl_irr96       0.00395867  infl_irr96
  1 15 25  infl_irr95       0.03247192  infl_irr95
  1 15 26  infl_irr95       0.01399628  infl_irr95
  1 15 27  infl_irr95       0.01069950  infl_irr95
  1 15 28  infl_irr95       0.00720022  infl_irr95
  1 15 29  infl_irr95       0.00899714  infl_irr95
  1 15 30  infl_irr95       0.00506464  infl_irr95
  1 15 31  infl_irr95       0.00406164  infl_irr95
  1 15 32  infl_irr95       0.00688307  infl_irr95
  1 15 32  infl_irr96       0.00190135  infl_irr96
  1 15 33  infl_irr95       0.00808363  infl_irr95
  1 15 33  infl_irr96       0.00707732  infl_irr96
  1 15 33  infl_irr102       0.01678661  infl_irr102
  1 15 34  infl_irr95  3.51721896E-05  infl_irr95
  1 15 34  infl_irr96  2.89166708E-05  infl_irr96
  1 15 34  infl_irr102       0.02543769  infl_irr102
  1 15 35  infl_irr93       0.00111128  infl_irr93
  1 15 35  infl_irr101       0.00111128  infl_irr101
  1 15 35  infl_irr102  6.15781449E-04  infl_irr102
  1 16 7  infl_irr25       0.00145979  infl_irr25
  1 16 7  infl_irr97       0.00166923  infl_irr97
  1 16 8  infl_irr25       0.00315627  infl_irr25
  1 16 8  infl_irr97  4.80759106E-04  infl_irr97
  1 16 8  infl_irr102       0.00973562  infl_irr102
  1 16 9  infl_irr25       0.00374272  infl_irr25
  1 16 9  infl_irr102       0.01372439  infl_irr102
  1 16 10  infl_irr81       0.00294419  infl_irr81
  1 16 10  infl_irr102       0.00201917  infl_irr102
  1 16 11  infl_irr81       0.02898977  infl_irr81
  1 16 11  infl_irr102       0.00519774  infl_irr102
  1 16 12  infl_irr81       0.06010181  infl_irr81
  1 16 12  infl_irr102       0.00767379  infl_irr102
  1 16 13  infl_irr81       0.00574229  infl_irr81
  1 16 13  infl_irr102  1.15661812E-05  infl_irr102
  1 16 19  infl_irr93       0.00177400  infl_irr93
  1 16 19  infl_irr101       0.00177400  infl_irr101
  1 16 19  infl_irr102  2.73628956E-04  infl_irr102
  1 16 20  infl_irr93       0.00170118  infl_irr93
  1 16 20  infl_irr97  6.85388274E-07  infl_irr97
  1 16 20  infl_irr101       0.00170118  infl_irr101
  1 16 20  infl_irr102  3.24614098E-05  infl_irr102
  1 16 21  infl_irr93       0.00987575  infl_irr93
  1 16 21  infl_irr96       0.00122288  infl_irr96
  1 16 21  infl_irr97       0.00157604  infl_irr97
  1 16 21  infl_irr101       0.00987575  infl_irr101
  1 16 21  infl_irr102       0.03502639  infl_irr102
  1 16 22  infl_irr96       0.03234036  infl_irr96
  1 16 22  infl_irr97       0.00347604  infl_irr97
  1 16 22  infl_irr102       0.01003926  infl_irr102
  1 16 23  infl_irr96       0.05393303  infl_irr96
  1 16 23  infl_irr97  4.17907999E-04  infl_irr97
  1 16 24  infl_irr95       0.01130503  infl_irr95
  1 16 24  infl_irr96       0.03521687  infl_irr96
  1 16 25  infl_irr95       0.03105228  infl_irr95
  1 16 25  infl_irr96       0.00374387  infl_irr96
  1 16 26  infl_irr95       0.03248347  infl_irr95
  1 16 26  infl_irr96  2.30877708E-05  infl_irr96
  1 16 27  infl_irr95       0.01708442  infl_irr95
  1 16 27  infl_irr96       0.02189701  infl_irr96
  1 16 28  infl_irr95       0.02048355  infl_irr95
  1 16 29  infl_irr95       0.02262981  infl_irr95
  1 16 30  infl_irr95       0.02201329  infl_irr95
  1 16 31  infl_irr95       0.01591447  infl_irr95
  1 16 31  infl_irr96  5.07241324E-04  infl_irr96
  1 16 31  infl_irr97  8.05775932E-04  infl_irr97
  1 16 32  infl_irr95       0.00195441  infl_irr95
  1 16 32  infl_irr96       0.00313988  infl_irr96
  1 16 32  infl_irr97  3.69140265E-05  infl_irr97
  1 16 33  infl_irr95  2.13892603E-04  infl_irr95
  1 16 33  infl_irr96       0.00779870  infl_irr96
  1 16 33  infl_irr102       0.03203668  infl_irr102
  1 16 34  infl_irr93       0.00331858  infl_irr93
  1 16 34  infl_irr101       0.00331858  infl_irr101
  1 16 34  infl_irr102       0.02187923  infl_irr102
  1 17 7  infl_irr25       0.00129618  infl_irr25
  1 17 7  infl_irr62       0.03278723  infl_irr62
  1 17 7  infl_irr97  3.78664292E-05  infl_irr97
  1 17 8  infl_irr25       0.03354502  infl_irr25
  1 17 8  infl_irr102       0.00571053  infl_irr102
  1 17 9  infl_irr25       0.00857583  infl_irr25
  1 17 9  infl_irr102       0.00561961  infl_irr102
  1 17 10  infl_irr81       0.00220412  infl_irr81
  1 17 10  infl_irr102  6.59768460E-04  infl_irr102
  1 17 11  infl_irr81       0.00739774  infl_irr81
  1 17 11  infl_irr102  1.66480106E-04  infl_irr102
  1 17 12  infl_irr81       0.00103097  infl_irr81
  1 17 12  infl_irr102  1.52025818E-04  infl_irr102
  1 17 13  infl_irr81       0.00862263  infl_irr81
  1 17 13  infl_irr102  6.63487899E-05  infl_irr102
  1 17 17  infl_irr05  1.67918241E-04  infl_irr05
  1 17 17  infl_irr81       0.00104342  infl_irr81
  1 17 18  infl_irr05       0.00259008  infl_irr05
  1 17 18  infl_irr81       0.00213737  infl_irr81
  1 17 18  infl_irr93  8.93257649E-05  infl_irr93
  1 17 18  infl_irr101  8.93257649E-05  infl_irr101
  1 17 18  infl_irr102  5.87898154E-05  infl_irr102
  1 17 19  infl_irr05       0.00763285  infl_irr05
  1 17 19  infl_irr93       0.01250592  infl_irr93
  1 17 19  infl_irr101       0.01250592  infl_irr101
  1 17 20  infl_irr05       0.00781366  infl_irr05
  1 17 20  infl_irr93       0.02177425  infl_irr93
  1 17 20  infl_irr101       0.02177425  infl_irr101
  1 17 21  infl_irr05  1.28973818E-05  infl_irr05
  1 17 21  infl_irr93  5.85841629E-04  infl_irr93
  1 17 21  infl_irr101  5.85841629E-04  infl_irr101
  1 17 21  infl_irr102  9.50482920E-06  infl_irr102
  1 17 22  infl_irr93       0.00611516  infl_irr93
  1 17 22  infl_irr97  1.77764485E-05  infl_irr97
  1 17 22  infl_irr101       0.00611516  infl_irr101
  1 17 22  infl_irr102       0.00467245  infl_irr102
  1 17 23  infl_irr93       0.01072085  infl_irr93
  1 17 23  infl_irr96       0.00670739  infl_irr96
  1 17 23  infl_irr97       0.00212648  infl_irr97
  1 17 23  infl_irr101       0.01072085  infl_irr101
  1 17 23  infl_irr102       0.05073827  infl_irr102
  1 17 24  infl_irr96       0.03299537  infl_irr96
  1 17 24  infl_irr97       0.00644791  infl_irr97
  1 17 24  infl_irr102       0.01038834  infl_irr102
  1 17 25  infl_irr95       0.00675492  infl_irr95
  1 17 25  infl_irr96       0.02639282  infl_irr96
  1 17 25  infl_irr97       0.00686079  infl_irr97
  1 17 26  infl_irr95       0.00315263  infl_irr95
  1 17 26  infl_irr96       0.07400995  infl_irr96
  1 17 27  infl_irr95       0.00194145  infl_irr95
  1 17 27  infl_irr96       0.10585819  infl_irr96
  1 17 28  infl_irr95       0.00699310  infl_irr95
  1 17 28  infl_irr96       0.01211633  infl_irr96
  1 17 29  infl_irr95       0.00493425  infl_irr95
  1 17 29  infl_irr96       0.00196217  infl_irr96
  1 17 30  infl_irr95       0.00370312  infl_irr95
  1 17 30  infl_irr96       0.00159215  infl_irr96
  1 17 30  infl_irr97       0.00111605  infl_irr97
  1 17 32  infl_irr96       0.00556550  infl_irr96
  1 17 33  infl_irr96       0.00281804  infl_irr96
  1 17 33  infl_irr102       0.02420863  infl_irr102
  1 17 34  infl_irr93       0.00366544  infl_irr93
  1 17 34  infl_irr101       0.00366544  infl_irr101
  1 17 34  infl_irr102       0.00271829  infl_irr102
  1 18 6  infl_irr25       0.00132442  infl_irr25
  1 18 6  infl_irr62       0.55385913  infl_irr62
  1 18 7  infl_irr25       0.01460023  infl_irr25
  1 18 7  infl_irr62       0.19975415  infl_irr62
  1 18 7  infl_irr97       0.00720234  infl_irr97
  1 18 8  infl_irr25       0.02787135  infl_irr25
  1 18 8  infl_irr102  3.87183108E-05  infl_irr102
  1 18 9  infl_irr25       0.00629216  infl_irr25
  1 18 9  infl_irr102       0.00913663  infl_irr102
  1 18 10  infl_irr81       0.01565940  infl_irr81
  1 18 10  infl_irr102       0.00216792  infl_irr102
  1 18 11  infl_irr81       0.06089734  infl_irr81
  1 18 12  infl_irr81       0.02955874  infl_irr81
  1 18 16  infl_irr05  1.16207938E-07  infl_irr05
  1 18 16  infl_irr81  2.70763789E-05  infl_irr81
  1 18 17  infl_irr05       0.00221740  infl_irr05
  1 18 17  infl_irr81       0.01303158  infl_irr81
  1 18 18  infl_irr05       0.00890375  infl_irr05
  1 18 18  infl_irr81       0.01374024  infl_irr81
  1 18 19  infl_irr05       0.01867856  infl_irr05
  1 18 19  infl_irr93       0.00119021  infl_irr93
  1 18 19  infl_irr101       0.00119021  infl_irr101
  1 18 20  infl_irr05       0.00248248  infl_irr05
  1 18 20  infl_irr93       0.01599576  infl_irr93
  1 18 20  infl_irr101       0.01599576  infl_irr101
  1 18 22  infl_irr05  5.81900940E-05  infl_irr05
  1 18 22  infl_irr93  8.55566450E-05  infl_irr93
  1 18 22  infl_irr101  8.55566450E-05  infl_irr101
  1 18 23  infl_irr93  7.33892457E-05  infl_irr93
  1 18 23  infl_irr101  7.33892457E-05  infl_irr101
  1 18 23  infl_irr102  4.08129273E-07  infl_irr102
  1 18 24  infl_irr93       0.00564051  infl_irr93
  1 18 24  infl_irr97  1.11022177E-04  infl_irr97
  1 18 24  infl_irr101       0.00564051  infl_irr101
  1 18 24  infl_irr102       0.00528213  infl_irr102
  1 18 25  infl_irr93       0.00734673  infl_irr93
  1 18 25  infl_irr96  6.78574097E-05  infl_irr96
  1 18 25  infl_irr97  5.11840559E-04  infl_irr97
  1 18 25  infl_irr101       0.00734673  infl_irr101
  1 18 25  infl_irr102       0.04509349  infl_irr102
  1 18 26  infl_irr93       0.00381862  infl_irr93
  1 18 26  infl_irr96       0.00945401  infl_irr96
  1 18 26  infl_irr97  9.81667783E-04  infl_irr97
  1 18 26  infl_irr101       0.00381862  infl_irr101
  1 18 26  infl_irr102       0.05249547  infl_irr102
  1 18 27  infl_irr96       0.03606165  infl_irr96
  1 18 27  infl_irr97  9.27463331E-04  infl_irr97
  1 18 28  infl_irr95  8.40233861E-05  infl_irr95
  1 18 28  infl_irr96       0.02365465  infl_irr96
  1 18 29  infl_irr96       0.02366627  infl_irr96
  1 18 30  infl_irr96       0.01388240  infl_irr96
  1 18 31  infl_irr96       0.01173197  infl_irr96
  1 18 32  infl_irr96       0.01972502  infl_irr96
  1 18 32  infl_irr102       0.00255735  infl_irr102
  1 18 33  infl_irr93       0.00149782  infl_irr93
  1 18 33  infl_irr96  5.05091921E-04  infl_irr96
  1 18 33  infl_irr101       0.00149782  infl_irr101
  1 18 33  infl_irr102       0.01628061  infl_irr102
  1 18 34  infl_irr93  5.04339920E-04  infl_irr93
  1 18 34  infl_irr101  5.04339920E-04  infl_irr101
  1 18 34  infl_irr102  6.25183338E-05  infl_irr102
  1 19 6  infl_irr25       0.01587232  infl_irr25
  1 19 6  infl_irr62       0.07373310  infl_irr62
  1 19 6  infl_irr88  2.15517145E-05  infl_irr88
  1 19 6  infl_irr97       0.00600593  infl_irr97
  1 19 7  infl_irr25       0.01743069  infl_irr25
  1 19 8  infl_irr25       0.02536592  infl_irr25
  1 19 8  infl_irr102       0.00615591  infl_irr102
  1 19 9  infl_irr81       0.00267310  infl_irr81
  1 19 9  infl_irr102       0.01265978  infl_irr102
  1 19 10  infl_irr81       0.03607980  infl_irr81
  1 19 10  infl_irr102       0.00798478  infl_irr102
  1 19 11  infl_irr81       0.06360225  infl_irr81
  1 19 12  infl_irr81       0.03468324  infl_irr81
  1 19 16  infl_irr05  3.78485932E-06  infl_irr05
  1 19 16  infl_irr81  6.29797989E-04  infl_irr81
  1 19 17  infl_irr05       0.00307134  infl_irr05
  1 19 17  infl_irr81       0.01329926  infl_irr81
  1 19 18  infl_irr05       0.01261035  infl_irr05
  1 19 19  infl_irr05       0.00926150  infl_irr05
  1 19 19  infl_irr93  4.96370452E-04  infl_irr93
  1 19 19  infl_irr101  4.96370452E-04  infl_irr101
  1 19 20  infl_irr05       0.00163715  infl_irr05
  1 19 20  infl_irr93       0.01026196  infl_irr93
  1 19 20  infl_irr101       0.01026196  infl_irr101
  1 19 21  infl_irr05  7.32809170E-04  infl_irr05
  1 19 21  infl_irr93       0.00418421  infl_irr93
  1 19 21  infl_irr101       0.00418421  infl_irr101
  1 19 22  infl_irr05       0.00103292  infl_irr05
  1 19 22  infl_irr93       0.00178476  infl_irr93
  1 19 22  infl_irr101       0.00178476  infl_irr101
  1 19 26  infl_irr93  6.68965961E-04  infl_irr93
  1 19 26  infl_irr97  5.35182375E-06  infl_irr97
  1 19 26  infl_irr101  6.68965961E-04  infl_irr101
  1 19 26  infl_irr102  2.03071144E-04  infl_irr102
  1 19 27  infl_irr93       0.00912960  infl_irr93
  1 19 27  infl_irr96       0.00581868  infl_irr96
  1 19 27  infl_irr97       0.00102026  infl_irr97
  1 19 27  infl_irr101       0.00912960  infl_irr101
  1 19 27  infl_irr102       0.03182898  infl_irr102
  1 19 28  infl_irr96       0.02166389  infl_irr96
  1 19 28  infl_irr97  5.93849905E-04  infl_irr97
  1 19 28  infl_irr102       0.03163834  infl_irr102
  1 19 29  infl_irr96       0.03195029  infl_irr96
  1 19 29  infl_irr97  1.92014502E-04  infl_irr97
  1 19 29  infl_irr102  8.03200562E-04  infl_irr102
  1 19 30  infl_irr96       0.01638529  infl_irr96
  1 19 30  infl_irr97  1.63780431E-04  infl_irr97
  1 19 30  infl_irr102  4.30698791E-04  infl_irr102
  1 19 31  infl_irr93  1.56749676E-04  infl_irr93
  1 19 31  infl_irr96       0.00624319  infl_irr96
  1 19 31  infl_irr101  1.56749676E-04  infl_irr101
  1 19 31  infl_irr102       0.00953350  infl_irr102
  1 19 32  infl_irr93       0.00382459  infl_irr93
  1 19 32  infl_irr96       0.00243772  infl_irr96
  1 19 32  infl_irr101       0.00382459  infl_irr101
  1 19 32  infl_irr102       0.01164295  infl_irr102
  1 19 33  infl_irr93       0.00163218  infl_irr93
  1 19 33  infl_irr101       0.00163218  infl_irr101
  1 19 33  infl_irr102  2.29749944E-04  infl_irr102
  1 19 36  infl_irr93  5.77778814E-05  infl_irr93
  1 19 36  infl_irr101  5.77778814E-05  infl_irr101
  1 20 6  infl_irr25       0.00451320  infl_irr25
  1 20 6  infl_irr88  4.69534289E-04  infl_irr88
  1 20 7  infl_irr25       0.02287110  infl_irr25
  1 20 8  infl_irr05       0.00201343  infl_irr05
  1 20 8  infl_irr25       0.01371305  infl_irr25
  1 20 8  infl_irr102       0.00985125  infl_irr102
  1 20 9  infl_irr05       0.00247145  infl_irr05
  1 20 9  infl_irr81       0.02559797  infl_irr81
  1 20 9  infl_irr102       0.00521330  infl_irr102
  1 20 10  infl_irr05       0.00262796  infl_irr05
  1 20 10  infl_irr81       0.00799985  infl_irr81
  1 20 10  infl_irr102  9.60418484E-04  infl_irr102
  1 20 11  infl_irr05       0.00226455  infl_irr05
  1 20 11  infl_irr81       0.07882367  infl_irr81
  1 20 11  infl_irr102  1.03532605E-05  infl_irr102
  1 20 12  infl_irr05  8.62561964E-04  infl_irr05
  1 20 12  infl_irr81       0.09400389  infl_irr81
  1 20 13  infl_irr81       0.00140837  infl_irr81
  1 20 15  infl_irr81       0.06511635  infl_irr81
  1 20 16  infl_irr81       0.01164174  infl_irr81
  1 20 17  infl_irr05  2.04099504E-06  infl_irr05
  1 20 17  infl_irr81  3.37403022E-04  infl_irr81
  1 20 18  infl_irr05       0.00322867  infl_irr05
  1 20 18  infl_irr81       0.01122258  infl_irr81
  1 20 19  infl_irr05       0.01282552  infl_irr05
  1 20 20  infl_irr05       0.00463543  infl_irr05
  1 20 20  infl_irr93       0.00118312  infl_irr93
  1 20 20  infl_irr101       0.00118312  infl_irr101
  1 20 21  infl_irr05       0.00303044  infl_irr05
  1 20 21  infl_irr93       0.00703302  infl_irr93
  1 20 21  infl_irr101       0.00703302  infl_irr101
  1 20 22  infl_irr05       0.00845820  infl_irr05
  1 20 22  infl_irr93       0.00703667  infl_irr93
  1 20 22  infl_irr101       0.00703667  infl_irr101
  1 20 24  infl_irr93  1.56649249E-04  infl_irr93
  1 20 24  infl_irr101  1.56649249E-04  infl_irr101
  1 20 25  infl_irr93  3.72998910E-05  infl_irr93
  1 20 25  infl_irr101  3.72998910E-05  infl_irr101
  1 20 28  infl_irr93       0.00157547  infl_irr93
  1 20 28  infl_irr101       0.00157547  infl_irr101
  1 20 28  infl_irr102  9.86647263E-04  infl_irr102
  1 20 29  infl_irr93       0.01007661  infl_irr93
  1 20 29  infl_irr96  7.00583848E-04  infl_irr96
  1 20 29  infl_irr97  1.60676641E-04  infl_irr97
  1 20 29  infl_irr101       0.01007661  infl_irr101
  1 20 29  infl_irr102       0.00935515  infl_irr102
  1 20 30  infl_irr93       0.00393485  infl_irr93
  1 20 30  infl_irr96  3.49926739E-05  infl_irr96
  1 20 30  infl_irr97  8.42299193E-06  infl_irr97
  1 20 30  infl_irr101       0.00393485  infl_irr101
  1 20 30  infl_irr102       0.00456969  infl_irr102
  1 20 31  infl_irr93       0.00103952  infl_irr93
  1 20 31  infl_irr101       0.00103952  infl_irr101
  1 20 31  infl_irr102  2.24544137E-04  infl_irr102
  1 20 35  infl_irr93  3.09478068E-05  infl_irr93
  1 20 35  infl_irr101  3.09478068E-05  infl_irr101
  1 20 36  infl_irr93       0.04045443  infl_irr93
  1 20 36  infl_irr101       0.04045443  infl_irr101
  1 20 37  infl_irr93       0.00398925  infl_irr93
  1 20 37  infl_irr101       0.00398925  infl_irr101
  1 21 5  infl_irr62  5.91887059E-04  infl_irr62
  1 21 5  infl_irr88       0.00852351  infl_irr88
  1 21 6  infl_irr25       0.00231323  infl_irr25
  1 21 6  infl_irr88       0.01558240  infl_irr88
  1 21 7  infl_irr25       0.01455931  infl_irr25
  1 21 7  infl_irr88       0.00791276  infl_irr88
  1 21 8  infl_irr05  1.59973882E-04  infl_irr05
  1 21 8  infl_irr25       0.02636779  infl_irr25
  1 21 9  infl_irr05       0.00487966  infl_irr05
  1 21 9  infl_irr25       0.02001860  infl_irr25
  1 21 10  infl_irr05       0.01409948  infl_irr05
  1 21 10  infl_irr25  4.02528703E-04  infl_irr25
  1 21 11  infl_irr05       0.00919973  infl_irr05
  1 21 11  infl_irr81       0.00357192  infl_irr81
  1 21 12  infl_irr05       0.00364757  infl_irr05
  1 21 12  infl_irr81       0.06559879  infl_irr81
  1 21 13  infl_irr05  5.57893237E-05  infl_irr05
  1 21 13  infl_irr81       0.00413170  infl_irr81
  1 21 16  infl_irr05  7.33149646E-04  infl_irr05
  1 21 16  infl_irr81       0.03647218  infl_irr81
  1 21 17  infl_irr05  8.38162763E-04  infl_irr05
  1 21 17  infl_irr81       0.02029327  infl_irr81
  1 21 18  infl_irr05       0.00295257  infl_irr05
  1 21 18  infl_irr81       0.00633670  infl_irr81
  1 21 19  infl_irr05       0.00871647  infl_irr05
  1 21 20  infl_irr05       0.01253791  infl_irr05